Materials Studio SDF calculation
TCVAMP81A 

 18  0  0  0  0  0              1 V2000
   -4.3067    2.1897   -0.6972 Li  0  0
   -5.4068   -0.3752    0.3678 Li  0  0
   -3.5346   -2.7187    0.2962 Li  0  0
   -0.4874   -2.1061    0.4418 Li  0  0
   -1.3642    2.6203   -0.2903 Li  0  0
    2.4976   -1.7719   -0.5720 Li  0  0
    3.4367    1.0768   -0.3438 Li  0  0
    1.5692    3.2610    0.0921 Li  0  0
   -2.5590   -0.0449   -0.0929 Li  0  0
    0.6332    0.4995   -0.4192 Li  0  0
    1.5015   -0.9307    0.7566 Li  0  0
   -1.4070   -1.0485    1.0863 Li  0  0
   -0.0222    1.3924    1.6547 Li  0  0
    0.2420   -0.9173    3.4022 Li  0  0
   -2.3587   -2.2965    3.5624 Li  0  0
   -2.1754    0.6063    3.3490 Li  0  0
   -2.7678    1.4988    0.6364 Li  0  0
    0.2207    1.7774    4.5516 Li  0  0
M  END

> <TOTAL ENERGY>
ACCELRYS, TYPE=DOUBLE, VERSION=1                                                
  -135.19826625

> <BINDING ENERGY>
ACCELRYS, TYPE=DOUBLE, VERSION=1                                                
    -0.76103194

> <OPERATION STATUS>
ACCELRYS, TYPE=STATUS, VERSION=1                                                
SUCCESS

$$$$
