Materials Studio SDF calculation
TCVAMP81A 

 19  0  0  0  0  0              1 V2000
    5.3394    2.7209   -3.8722 Li  0  0
    5.8699    2.9715    2.0714 Li  0  0
    2.6212   -0.3941    0.6426 Li  0  0
    7.2177    0.2606    2.5896 Li  0  0
    3.7413    1.3095   -1.8017 Li  0  0
    6.5980    0.5667   -2.3976 Li  0  0
    7.2231   -1.3145   -0.0388 Li  0  0
    5.8513    3.3052   -0.9650 Li  0  0
    4.2141    0.7862    3.0574 Li  0  0
    3.2478    2.6806    0.8011 Li  0  0
    3.0737    4.0826   -1.9607 Li  0  0
    4.2557   -1.5715   -1.5104 Li  0  0
    5.4275    0.7331    0.4706 Li  0  0
    7.9978    1.8196   -0.0021 Li  0  0
    8.2134    2.9809   -2.6451 Li  0  0
    1.0312    2.0428   -1.2038 Li  0  0
    2.2295    2.0530   -4.0593 Li  0  0
    4.2815   -0.1808   -4.1631 Li  0  0
    1.7493   -0.5549   -2.5109 Li  0  0
M  END

> <TOTAL ENERGY>
ACCELRYS, TYPE=DOUBLE, VERSION=1                                                
  -142.73789246

> <BINDING ENERGY>
ACCELRYS, TYPE=DOUBLE, VERSION=1                                                
    -0.83192292

> <OPERATION STATUS>
ACCELRYS, TYPE=STATUS, VERSION=1                                                
SUCCESS

$$$$
