Materials Studio SDF calculation
TCVAMP81A 

 19  0  0  0  0  0              1 V2000
    3.3300   -5.4328   -1.8827 Li  0  0
    3.3526   -8.1734   -2.3454 Li  0  0
    5.9934   -6.4171   -2.9269 Li  0  0
    5.6983   -3.6307   -2.3537 Li  0  0
    8.3211   -4.7218   -3.3821 Li  0  0
    8.3835   -7.6424   -3.9749 Li  0  0
    5.8868   -9.3284   -3.4284 Li  0  0
    3.3738  -10.9129   -2.8078 Li  0  0
    1.0081  -12.5576   -2.3421 Li  0  0
   -1.3589  -11.0842   -1.4180 Li  0  0
   -1.2898   -8.2297   -0.9339 Li  0  0
   -3.6604   -9.6404    0.0006 Li  0  0
   -5.7785   -8.0825    1.3915 Li  0  0
   -3.3719   -6.7099    0.4458 Li  0  0
   -0.9998   -5.0935   -0.3732 Li  0  0
    0.9338   -6.8638   -1.4257 Li  0  0
    1.0471   -9.7101   -1.8941 Li  0  0
    2.0912   -8.7797    0.4511 Li  0  0
    0.8332   -8.1701   -4.0965 Li  0  0
M  END

> <TOTAL ENERGY>
BIOVIA, TYPE=DOUBLE, VERSION=1                                                  
  -142.69292461

> <BINDING ENERGY>
BIOVIA, TYPE=DOUBLE, VERSION=1                                                  
    -0.78695507

> <OPERATION STATUS>
BIOVIA, TYPE=STATUS, VERSION=1                                                  
SUCCESS

$$$$
