Materials Studio SDF calculation
TCVAMP81A 

  5  0  0  0  0  0              1 V2000
   -8.0763    1.8279   -1.1233 Li  0  0
   -9.5731   -0.2390    0.3535 Li  0  0
   -7.0604   -0.6964    0.2662 Li  0  0
   -8.3274    1.5616    1.8244 Li  0  0
   -8.5396   -1.1604    2.9940 Li  0  0
M  END

> <TOTAL ENERGY>
BIOVIA, TYPE=DOUBLE, VERSION=1                                                  
   -37.47238002

> <BINDING ENERGY>
BIOVIA, TYPE=DOUBLE, VERSION=1                                                  
    -0.12870382

> <OPERATION STATUS>
BIOVIA, TYPE=STATUS, VERSION=1                                                  
SUCCESS

$$$$
