Materials Studio SDF calculation
TCVAMP81A 

 19  0  0  0  0  0              1 V2000
   -2.9463    1.9953   -0.2549 Li  0  0
    0.8752    0.4079   -2.9873 Li  0  0
    1.9336    2.4532    2.3048 Li  0  0
   -0.2588   -1.9595    2.1328 Li  0  0
    1.9357   -0.4846    3.5353 Li  0  0
   -1.8969   -0.4537   -2.4207 Li  0  0
    1.1801   -2.6802   -2.7281 Li  0  0
    2.2599   -2.6428    0.7053 Li  0  0
   -0.3653    3.6219    0.5764 Li  0  0
   -0.8831    1.0216    2.3563 Li  0  0
   -2.4260   -0.8830    0.5015 Li  0  0
   -0.4868    1.1638   -0.4755 Li  0  0
   -1.1105   -3.6154   -0.4806 Li  0  0
    0.1812   -1.3632   -0.7294 Li  0  0
    4.0883    0.3746    1.3363 Li  0  0
    1.5083    0.1366    1.0367 Li  0  0
   -0.8750    2.8618   -2.4394 Li  0  0
    3.0113   -0.6767   -1.3095 Li  0  0
    2.1120    2.2411   -0.7952 Li  0  0
M  END

> <TOTAL ENERGY>
ACCELRYS, TYPE=DOUBLE, VERSION=1                                                
  -142.74841221

> <BINDING ENERGY>
ACCELRYS, TYPE=DOUBLE, VERSION=1                                                
    -0.84244267

> <OPERATION STATUS>
ACCELRYS, TYPE=STATUS, VERSION=1                                                
SUCCESS

$$$$
