Materials Studio SDF calculation
TCVAMP81A 

 19  0  0  0  0  0              1 V2000
    8.8382    7.2278    7.8107 Li  0  0
    9.4400   11.5833    8.1364 Li  0  0
    9.2679    6.9752   11.0188 Li  0  0
    8.0522   11.4888   10.7358 Li  0  0
    7.4705    9.3508    8.9474 Li  0  0
   12.2676    8.8782   10.7647 Li  0  0
    7.1952    8.9227   11.6842 Li  0  0
    5.8122    8.6738    7.0728 Li  0  0
   11.3920    9.3583    7.6909 Li  0  0
    9.8939    9.7524   12.5491 Li  0  0
    8.5271    9.6907    6.3435 Li  0  0
    6.4583    6.9208    9.6546 Li  0  0
   11.0576   11.8006   10.4648 Li  0  0
   11.2930    6.5948    9.0439 Li  0  0
    6.6335   11.7407    7.9732 Li  0  0
    8.7482   13.9905    9.4152 Li  0  0
    8.7805    4.7006    9.2356 Li  0  0
    5.0037    9.7897    9.9227 Li  0  0
    9.9034    9.2910    9.8773 Li  0  0
M  END

> <TOTAL ENERGY>
BIOVIA, TYPE=DOUBLE, VERSION=1                                                  
  -142.71831929

> <BINDING ENERGY>
BIOVIA, TYPE=DOUBLE, VERSION=1                                                  
    -0.81234975

> <OPERATION STATUS>
BIOVIA, TYPE=STATUS, VERSION=1                                                  
SUCCESS

$$$$
