Materials Studio SDF calculation
TCVAMP81A 

 19  0  0  0  0  0              1 V2000
    9.8502   10.8588   10.0737 Li  0  0
   10.0095    9.3937    7.8865 Li  0  0
    8.3674   10.1918   13.8800 Li  0  0
   12.0688   10.7809    8.7542 Li  0  0
    8.0658    8.2080   12.7160 Li  0  0
    8.5236    8.7258   10.3017 Li  0  0
    9.5668   11.9750   12.2902 Li  0  0
    9.8024    9.4569   12.2372 Li  0  0
    8.3084   12.7186    9.9183 Li  0  0
   10.8843   10.3344   13.8463 Li  0  0
    7.8129   10.7168    8.6435 Li  0  0
    7.6897   10.7557   11.5775 Li  0  0
   11.4858    8.8859   10.2735 Li  0  0
   10.0883    6.9882   11.8562 Li  0  0
    9.7356   12.3432    7.7493 Li  0  0
    9.8987    8.0810   14.3870 Li  0  0
   11.9943    8.3988   12.8427 Li  0  0
   11.7133   11.2379   11.6800 Li  0  0
   11.0261   12.8197    9.9692 Li  0  0
M  END

> <TOTAL ENERGY>
BIOVIA, TYPE=DOUBLE, VERSION=1                                                  
  -142.73207382

> <BINDING ENERGY>
BIOVIA, TYPE=DOUBLE, VERSION=1                                                  
    -0.82610428

> <OPERATION STATUS>
BIOVIA, TYPE=STATUS, VERSION=1                                                  
SUCCESS

$$$$
