Materials Studio SDF calculation
TCVAMP81A 

 19  0  0  0  0  0              1 V2000
   -2.2508    3.4864   -2.9459 Li  0  0
    3.8860    1.3867   -2.9791 Li  0  0
    3.4240    0.3299    0.6347 Li  0  0
   -0.1412   -0.4239    0.7119 Li  0  0
   -1.2371   -3.6021   -0.8573 Li  0  0
   -2.4979    2.3562    0.6668 Li  0  0
   -3.7246   -1.2902    0.9537 Li  0  0
   -1.9000    0.3337    3.8907 Li  0  0
    0.8881    2.6135   -1.1271 Li  0  0
    2.1627   -3.3046    0.9218 Li  0  0
    1.5506   -1.4521   -2.3580 Li  0  0
   -2.1380   -0.1901   -2.3380 Li  0  0
    1.7439   -0.9131    3.8709 Li  0  0
   -1.1023   -3.2679    2.9263 Li  0  0
    0.8948    2.5735    2.6276 Li  0  0
    0.4418    1.3641   -4.5990 Li  0  0
   -4.3945    0.7551   -1.4121 Li  0  0
    3.5128    3.1545    0.9787 Li  0  0
    4.0488   -2.1637   -1.8927 Li  0  0
M  END

> <TOTAL ENERGY>
ACCELRYS, TYPE=DOUBLE, VERSION=1                                                
  -142.81189561

> <BINDING ENERGY>
ACCELRYS, TYPE=DOUBLE, VERSION=1                                                
    -0.90592607

> <OPERATION STATUS>
ACCELRYS, TYPE=STATUS, VERSION=1                                                
SUCCESS

$$$$
