Materials Studio SDF calculation
TCVAMP81A 

 14  0  0  0  0  0              1 V2000
   -3.8979    1.7857   -0.1528 Li  0  0
   -3.7129   -0.7048   -0.2204 Li  0  0
   -1.2756   -1.2704   -0.2713 Li  0  0
    0.0614    0.8398   -0.1355 Li  0  0
   -1.5773    2.7377   -0.1336 Li  0  0
   -3.2996    2.3861   -3.0103 Li  0  0
   -3.3684   -0.1120   -3.0718 Li  0  0
   -1.0189   -0.9104   -2.7349 Li  0  0
    0.4807    1.0975   -2.5758 Li  0  0
   -0.9508    3.1194   -2.7635 Li  0  0
   -1.4298    1.0739   -4.1090 Li  0  0
   -1.6480    0.7377   -2.1540 Li  0  0
   -1.9334    0.6693   -0.8282 Li  0  0
   -2.0201    0.6978    1.0220 Li  0  0
M  END

> <TOTAL ENERGY>
ACCELRYS, TYPE=DOUBLE, VERSION=1                                                
  -105.12676290

> <BINDING ENERGY>
ACCELRYS, TYPE=DOUBLE, VERSION=1                                                
    -0.56446956

> <OPERATION STATUS>
ACCELRYS, TYPE=STATUS, VERSION=1                                                
SUCCESS

$$$$
