Materials Studio SDF calculation
TCVAMP81A 

  4  0  0  0  0  0              1 V2000
   11.0158   11.3056    5.5754 Li  0  0
    9.3017   11.8364    9.9201 Li  0  0
    8.4582   12.0976   12.0579 Li  0  0
   10.1724   11.5668    7.7132 Li  0  0
M  END

> <TOTAL ENERGY>
BIOVIA, TYPE=DOUBLE, VERSION=1                                                  
   -29.93627178

> <BINDING ENERGY>
BIOVIA, TYPE=DOUBLE, VERSION=1                                                  
    -0.06133082

> <OPERATION STATUS>
BIOVIA, TYPE=STATUS, VERSION=1                                                  
SUCCESS

$$$$
