Materials Studio SDF calculation
TCVAMP81A 

 19  0  0  0  0  0              1 V2000
    2.1045   -4.2686    0.1044 Li  0  0
   -4.9155    1.3556   -1.9098 Li  0  0
    3.8392   -1.0770   -1.2954 Li  0  0
   -0.2380    2.5154    2.1500 Li  0  0
    1.8384    4.7949   -0.0516 Li  0  0
   -4.9769   -1.4384    0.8894 Li  0  0
   -1.9694    0.1065   -0.3267 Li  0  0
    4.4498    2.5993   -2.1141 Li  0  0
    3.5295    1.7110    1.4807 Li  0  0
   -3.5524   -2.2119   -2.6051 Li  0  0
    1.0318   -0.9396    1.0587 Li  0  0
   -1.6971   -3.5221    0.5622 Li  0  0
    2.3416    0.2640   -4.5629 Li  0  0
    0.2811   -2.1584   -2.5037 Li  0  0
   -1.6144    0.8608   -3.9452 Li  0  0
   -4.0415    2.1911    1.7789 Li  0  0
   -1.9346    3.7435   -1.0749 Li  0  0
   -2.0047   -0.7535    3.3189 Li  0  0
    1.0460    1.6168   -1.5071 Li  0  0
M  END

> <TOTAL ENERGY>
ACCELRYS, TYPE=DOUBLE, VERSION=1                                                
  -142.72353697

> <BINDING ENERGY>
ACCELRYS, TYPE=DOUBLE, VERSION=1                                                
    -0.81756743

> <OPERATION STATUS>
ACCELRYS, TYPE=STATUS, VERSION=1                                                
SUCCESS

$$$$
