Materials Studio SDF calculation
TCVAMP81A 

 19  0  0  0  0  0              1 V2000
    8.8616    8.9698    7.0883 Li  0  0
    8.8306    8.9044   12.3737 Li  0  0
    8.8283    8.8951    9.7887 Li  0  0
    9.0218   10.9704    8.2225 Li  0  0
    7.0975   10.1942    8.3307 Li  0  0
    6.8499    7.9729    8.3409 Li  0  0
    8.7175    7.0970    8.1731 Li  0  0
   10.6148    7.5608    8.4176 Li  0  0
   10.8139    9.7861    8.2972 Li  0  0
    9.1381    7.0332   11.2024 Li  0  0
   10.8018    8.0953   11.0335 Li  0  0
   10.6882   10.1664   11.0248 Li  0  0
    8.6177   10.7629   11.2562 Li  0  0
    6.8839    9.8044   10.9957 Li  0  0
    7.0389    7.7345   11.0894 Li  0  0
   10.0305    8.7169    9.5896 Li  0  0
    8.4960    7.1504    9.8022 Li  0  0
    9.1385   10.5688    9.7580 Li  0  0
    7.6488    9.1424    9.5480 Li  0  0
M  END

> <TOTAL ENERGY>
BIOVIA, TYPE=DOUBLE, VERSION=1                                                  
  -142.74335505

> <BINDING ENERGY>
BIOVIA, TYPE=DOUBLE, VERSION=1                                                  
    -0.83738551

> <OPERATION STATUS>
BIOVIA, TYPE=STATUS, VERSION=1                                                  
SUCCESS

$$$$
