Materials Studio SDF calculation
TCVAMP81A 

 19  0  0  0  0  0              1 V2000
   -4.3741    2.0365   -0.1710 Li  0  0
   -4.5721   -1.4698   -0.2752 Li  0  0
   -1.1562   -1.5721   -0.3204 Li  0  0
   -0.9764    1.9307   -0.0698 Li  0  0
   -2.7080    2.1248    2.3991 Li  0  0
   -4.9414    0.1858    2.1575 Li  0  0
   -2.9118   -1.9173    2.1898 Li  0  0
   -0.6605    0.0138    2.2173 Li  0  0
   -2.7691    0.1819    0.6686 Li  0  0
   -1.6965   -0.9232    4.1368 Li  0  0
   -3.2274   -2.8279    4.1368 Li  0  0
   -1.8889   -4.8725    4.1368 Li  0  0
    0.4691   -4.2313    4.1368 Li  0  0
    0.5881   -1.7906    4.1368 Li  0  0
   -1.3898   -2.6252    4.1441 Li  0  0
   -1.0565   -3.7568    2.0041 Li  0  0
    0.0148   -5.9082    2.4463 Li  0  0
    0.3436   -6.1062    4.8596 Li  0  0
   -0.5245   -4.0772    5.9090 Li  0  0
M  END

> <TOTAL ENERGY>
ACCELRYS, TYPE=DOUBLE, VERSION=1                                                
  -142.71501410

> <BINDING ENERGY>
ACCELRYS, TYPE=DOUBLE, VERSION=1                                                
    -0.80904455

> <OPERATION STATUS>
ACCELRYS, TYPE=STATUS, VERSION=1                                                
SUCCESS

$$$$
