Materials Studio SDF calculation
TCVAMP81A 

 19  0  0  0  0  0              1 V2000
   -5.6235    2.6343    1.9497 Li  0  0
   -5.1841    0.4382   -1.2642 Li  0  0
   -5.4053   -2.3593    1.3711 Li  0  0
   -5.4654   -0.8735   -3.7831 Li  0  0
   -5.6175    2.4017   -3.4317 Li  0  0
   -4.4170    3.0136   -0.6378 Li  0  0
   -4.8648    0.4419    0.4322 Li  0  0
   -4.1875   -1.9509   -1.1822 Li  0  0
   -8.0916    0.5724   -2.8954 Li  0  0
   -7.4703    2.5759   -0.5314 Li  0  0
   -6.9588    0.1528    0.9513 Li  0  0
   -7.4625   -1.8911   -0.9475 Li  0  0
   -2.4088   -1.3560    1.3317 Li  0  0
   -2.5386    2.0112    1.6882 Li  0  0
   -7.4921    0.7156   -0.8428 Li  0  0
   -5.2754   -0.0179    3.2756 Li  0  0
   -8.4698    1.5646    2.5975 Li  0  0
   -9.4374    0.1592   -0.0363 Li  0  0
   -8.3341   -1.7304    2.2058 Li  0  0
M  END

> <TOTAL ENERGY>
ACCELRYS, TYPE=DOUBLE, VERSION=1                                                
  -142.74815463

> <BINDING ENERGY>
ACCELRYS, TYPE=DOUBLE, VERSION=1                                                
    -0.84218509

> <OPERATION STATUS>
ACCELRYS, TYPE=STATUS, VERSION=1                                                
SUCCESS

$$$$
