Materials Studio SDF calculation
TCVAMP81A 

 19  0  0  0  0  0              1 V2000
    4.6837   -3.7545    0.7701 Li  0  0
    1.8915   -1.4673    1.5797 Li  0  0
    1.5629    1.0749   -0.2417 Li  0  0
    6.4898   -0.7774   -0.7869 Li  0  0
    3.5004   -2.6726    3.4915 Li  0  0
    2.6745    1.0812    2.4131 Li  0  0
    4.5931    1.3012    0.4115 Li  0  0
    7.7565   -2.4784    1.2934 Li  0  0
    2.0024   -0.6843    4.6461 Li  0  0
    5.0955    2.7430    2.9603 Li  0  0
    7.1534    0.7775    1.8813 Li  0  0
    6.0576   -3.6669    3.4763 Li  0  0
    4.8582   -1.5086    5.8505 Li  0  0
    3.7002    1.6804    5.5329 Li  0  0
    6.7742    1.4596    5.0861 Li  0  0
    7.3465   -1.1756    3.9457 Li  0  0
    3.5289   -1.0708   -0.6562 Li  0  0
    5.2623   -1.3568    1.6205 Li  0  0
    4.8057    0.0846    3.7501 Li  0  0
M  END

> <TOTAL ENERGY>
BIOVIA, TYPE=DOUBLE, VERSION=1                                                  
  -142.73251960

> <BINDING ENERGY>
BIOVIA, TYPE=DOUBLE, VERSION=1                                                  
    -0.82655006

> <OPERATION STATUS>
BIOVIA, TYPE=STATUS, VERSION=1                                                  
SUCCESS

$$$$
