Materials Studio SDF calculation
TCVAMP81A 

  6  0  0  0  0  0              1 V2000
   -2.0951   -2.1487   -3.2379 Li  0  0
   -1.2828    0.8340   -2.2983 Li  0  0
   -0.4907   -1.5050   -1.0591 Li  0  0
    1.3775    0.6050   -0.7396 Li  0  0
   -1.3963    1.2439    0.2501 Li  0  0
   -3.3142   -0.4286   -0.8651 Li  0  0
M  END

> <TOTAL ENERGY>
BIOVIA, TYPE=DOUBLE, VERSION=1                                                  
   -44.99077414

> <BINDING ENERGY>
BIOVIA, TYPE=DOUBLE, VERSION=1                                                  
    -0.17836270

> <OPERATION STATUS>
BIOVIA, TYPE=STATUS, VERSION=1                                                  
SUCCESS

$$$$
