Materials Studio SDF calculation
TCVAMP81A 

 19  0  0  0  0  0              1 V2000
  -10.2879   -1.6369    2.1977 Li  0  0
   -7.7275   -2.8268    3.1267 Li  0  0
   -5.6923   -0.6799    3.3314 Li  0  0
   -6.8782    1.9091    2.4548 Li  0  0
   -9.7844    1.2567    1.7272 Li  0  0
   -7.7103   -0.6431    1.2955 Li  0  0
   -8.5049   -0.1269    3.8270 Li  0  0
   -9.1291   -1.3590    0.0555 Li  0  0
   -5.9978   -1.2953    0.2146 Li  0  0
   -7.5140    0.5520   -1.5344 Li  0  0
   -7.6739    0.9249    1.2380 Li  0  0
  -10.0322    1.4636   -0.3824 Li  0  0
   -5.1708    1.5591   -0.1193 Li  0  0
   -7.6323    3.1067   -0.4664 Li  0  0
   -9.4272    4.2627    0.9157 Li  0  0
   -6.0843    4.2854    1.1568 Li  0  0
   -5.8573    3.8989   -2.0959 Li  0  0
   -9.2522    3.8671   -2.2626 Li  0  0
   -7.6261    5.8886   -0.8080 Li  0  0
M  END

> <TOTAL ENERGY>
ACCELRYS, TYPE=DOUBLE, VERSION=1                                                
  -142.71098062

> <BINDING ENERGY>
ACCELRYS, TYPE=DOUBLE, VERSION=1                                                
    -0.80501108

> <OPERATION STATUS>
ACCELRYS, TYPE=STATUS, VERSION=1                                                
SUCCESS

$$$$
