Materials Studio SDF calculation
TCVAMP81A 

  4  0  0  0  0  0              1 V2000
   -6.5580    1.5161    0.3579 Li  0  0
   -3.9013    0.8050   -0.0825 Li  0  0
   -6.0908   -1.0028   -1.1285 Li  0  0
   -5.5163    0.3202   -0.2444 Mn  0  0
M  END

> <TOTAL ENERGY>
BIOVIA, TYPE=DOUBLE, VERSION=1                                                  
  -144.35288100

> <BINDING ENERGY>
BIOVIA, TYPE=DOUBLE, VERSION=1                                                  
    -0.08223749

> <HOMO ENERGY>
BIOVIA, TYPE=DOUBLE, VERSION=1                                                  
    -0.06775973

> <LUMO ENERGY>
BIOVIA, TYPE=DOUBLE, VERSION=1                                                  
    -0.04388802

> <LUMO-HOMO ENERGY>
BIOVIA, TYPE=DOUBLE, VERSION=1                                                  
     0.02387171

> <OPERATION STATUS>
BIOVIA, TYPE=STATUS, VERSION=1                                                  
SUCCESS

$$$$
