Materials Studio SDF calculation
TCVAMP81A 

 13  0  0  0  0  0              1 V2000
   -1.2591    3.0846   -0.0862 Li  0  0
   -3.3003    1.0680   -0.2270 Li  0  0
   -2.2755   -1.5703   -0.2084 Li  0  0
    0.4848   -1.1987   -0.0899 Li  0  0
    1.0864    1.5808   -0.0482 Li  0  0
   -2.8296    2.3663    2.1800 Li  0  0
   -3.4406   -0.4349    2.0862 Li  0  0
   -1.0729   -1.8988    2.2298 Li  0  0
    1.0427    0.0164    2.3836 Li  0  0
   -0.0467    2.6308    2.3965 Li  0  0
   -0.7231    0.6280   -1.7218 Li  0  0
   -0.9149    0.6153    1.0183 Li  0  0
   -1.1424    0.5387    3.8245 Li  0  0
M  END

> <TOTAL ENERGY>
ACCELRYS, TYPE=DOUBLE, VERSION=1                                                
   -97.61393977

> <BINDING ENERGY>
ACCELRYS, TYPE=DOUBLE, VERSION=1                                                
    -0.52038166

> <OPERATION STATUS>
ACCELRYS, TYPE=STATUS, VERSION=1                                                
SUCCESS

$$$$
