Materials Studio SDF calculation
TCVAMP81A 

 19  0  0  0  0  0              1 V2000
   -2.5481   -1.2646   -0.3678 Li  0  0
   -1.5323    1.4185    0.1853 Li  0  0
    0.3849    3.1389   -1.1303 Li  0  0
    3.5097   -0.3642   -0.1941 Li  0  0
    2.1318   -2.8320   -1.1354 Li  0  0
    0.1281   -1.1302   -0.4520 Li  0  0
   -0.6636   -0.3990    2.3605 Li  0  0
    0.2758    2.9527    2.1671 Li  0  0
    3.0757    2.5872    0.2684 Li  0  0
    2.6304    0.7909    2.9348 Li  0  0
    1.9216   -1.9101    1.6755 Li  0  0
   -0.4641   -3.5029    0.5198 Li  0  0
   -1.0847    0.5201   -2.5464 Li  0  0
    1.1263    2.0508   -4.0794 Li  0  0
    3.9020    1.4024   -2.7307 Li  0  0
    1.5652    0.8191   -1.7427 Li  0  0
    1.9540   -0.9426   -3.5084 Li  0  0
   -0.6786   -2.5596   -2.5152 Li  0  0
    1.1303    0.9224    0.8623 Li  0  0
M  END

> <TOTAL ENERGY>
ACCELRYS, TYPE=DOUBLE, VERSION=1                                                
  -142.82449126

> <BINDING ENERGY>
ACCELRYS, TYPE=DOUBLE, VERSION=1                                                
    -0.91852172

> <OPERATION STATUS>
ACCELRYS, TYPE=STATUS, VERSION=1                                                
SUCCESS

$$$$
