Materials Studio SDF calculation
TCVAMP81A 

 19  0  0  0  0  0              1 V2000
   -4.0074    1.1478   -1.0441 Li  0  0
    0.3967    0.9315   -3.7707 Li  0  0
    1.0974    2.1523    1.8783 Li  0  0
   -0.4470   -2.4988    2.4645 Li  0  0
    1.8878   -0.5653    3.0590 Li  0  0
   -1.4756    0.0286   -1.7660 Li  0  0
    1.4598   -0.9942   -1.9025 Li  0  0
    2.0045   -2.5977    0.6184 Li  0  0
    0.8676    1.7640   -1.0484 Li  0  0
   -1.0159    0.5634    3.1023 Li  0  0
   -2.6034   -0.8121    0.8342 Li  0  0
   -1.7342    1.9471    0.5556 Li  0  0
   -0.6828   -2.6880   -0.7742 Li  0  0
    0.2457   -0.4787    0.7748 Li  0  0
    2.9806    0.3229    0.3233 Li  0  0
    3.3055    1.2396   -2.4638 Li  0  0
   -1.5819    2.8465   -2.1885 Li  0  0
    0.0491    4.2726    0.1286 Li  0  0
    3.0744    3.3026    0.0425 Li  0  0
M  END

> <TOTAL ENERGY>
ACCELRYS, TYPE=DOUBLE, VERSION=1                                                
  -142.75325283

> <BINDING ENERGY>
ACCELRYS, TYPE=DOUBLE, VERSION=1                                                
    -0.81694761

> <OPERATION STATUS>
ACCELRYS, TYPE=STATUS, VERSION=1                                                
SUCCESS

$$$$
