Materials Studio SDF calculation
TCVAMP81A 

  7  0  0  0  0  0              1 V2000
    3.3398    1.0562    2.0630 Li  0  0
    5.5429    1.5376    0.5921 Li  0  0
    4.7922   -0.9972    1.1023 Li  0  0
    3.4007    2.9795   -0.2972 Li  0  0
    3.7769    0.2539   -0.3536 Li  0  0
    2.8633   -1.3744    1.6696 Li  0  0
    6.4001   -0.6517    0.0333 Li  0  0
M  END

> <TOTAL ENERGY>
ACCELRYS, TYPE=DOUBLE, VERSION=1                                                
   -52.50946690

> <BINDING ENERGY>
ACCELRYS, TYPE=DOUBLE, VERSION=1                                                
    -0.22832023

> <OPERATION STATUS>
ACCELRYS, TYPE=STATUS, VERSION=1                                                
SUCCESS

$$$$
