Materials Studio SDF calculation
TCVAMP81A 

 19  0  0  0  0  0              1 V2000
   -4.3413    2.2848   -0.0545 Li  0  0
   -4.0340   -0.5280   -0.0789 Li  0  0
   -1.1945   -0.7160   -0.1368 Li  0  0
   -1.5041    2.0990   -0.1135 Li  0  0
   -5.0191    0.8702    2.8348 Li  0  0
   -2.5140   -1.5286    2.7658 Li  0  0
   -0.3973    0.6758    2.7383 Li  0  0
   -2.9408    3.0661    2.7898 Li  0  0
   -2.7275    0.7723    1.7857 Li  0  0
   -2.6729    0.7755    4.7221 Li  0  0
   -2.8113    0.7953   -2.4096 Li  0  0
   -0.6718   -2.7421   -0.3093 Li  0  0
   -1.1911   -2.0525    2.5051 Li  0  0
    1.2296   -0.5944    3.4534 Li  0  0
    3.3035   -0.9261    1.2620 Li  0  0
    2.0369   -2.3574   -0.9117 Li  0  0
    1.4545   -3.3014    1.7703 Li  0  0
    0.6492   -0.7230    0.8858 Li  0  0
    0.0845   -0.0734   -1.6445 Li  0  0
M  END

> <TOTAL ENERGY>
ACCELRYS, TYPE=DOUBLE, VERSION=1                                                
  -142.74865096

> <BINDING ENERGY>
ACCELRYS, TYPE=DOUBLE, VERSION=1                                                
    -0.84268142

> <OPERATION STATUS>
ACCELRYS, TYPE=STATUS, VERSION=1                                                
SUCCESS

$$$$
