Materials Studio SDF calculation
TCVAMP81A 

 19  0  0  0  0  0              1 V2000
   -2.0323    1.2273   -2.5172 Li  0  0
    3.3275    1.8814   -2.0894 Li  0  0
    2.7516   -0.1684    0.0010 Li  0  0
   -0.0111   -0.2455    0.8657 Li  0  0
   -1.7925   -3.2094   -0.4370 Li  0  0
   -1.5186    2.1761    0.6781 Li  0  0
   -2.8119   -0.4868    0.2712 Li  0  0
   -0.9006    0.6770    3.2062 Li  0  0
    0.7204    1.6997   -1.1048 Li  0  0
    1.1184   -2.7029   -0.0325 Li  0  0
   -0.6284   -0.8865   -1.6814 Li  0  0
   -3.0537   -1.7232   -2.6849 Li  0  0
    1.5926   -1.2773    2.7939 Li  0  0
   -1.0915   -2.2873    2.2563 Li  0  0
    1.4743    1.9333    1.7780 Li  0  0
    0.6218    1.7624   -3.8273 Li  0  0
   -0.2176   -3.1797   -2.9782 Li  0  0
   -0.7389   -0.7001   -4.4668 Li  0  0
    1.8613   -0.7356   -2.7868 Li  0  0
M  END

> <TOTAL ENERGY>
ACCELRYS, TYPE=DOUBLE, VERSION=1                                                
  -142.74871398

> <BINDING ENERGY>
ACCELRYS, TYPE=DOUBLE, VERSION=1                                                
    -0.84274444

> <OPERATION STATUS>
ACCELRYS, TYPE=STATUS, VERSION=1                                                
SUCCESS

$$$$
