Materials Studio SDF calculation
TCVAMP81A 

 19  0  0  0  0  0              1 V2000
    5.2419   -3.8464    0.4405 Li  0  0
    2.1829   -0.7487    1.8457 Li  0  0
    1.6228    1.1317   -0.2630 Li  0  0
    6.3511   -1.0347   -0.6544 Li  0  0
    3.3627   -3.0485    3.1157 Li  0  0
    2.2406    2.0153    2.6981 Li  0  0
    4.3368    1.0651    0.6606 Li  0  0
    7.9550   -2.5108    1.3084 Li  0  0
    2.0857   -0.6277    4.7657 Li  0  0
    5.1064    2.9709    2.9824 Li  0  0
    7.0899    0.7220    1.9405 Li  0  0
    6.1867   -3.9042    3.4207 Li  0  0
    4.9215   -1.5315    5.3892 Li  0  0
    3.6879    1.8248    5.5589 Li  0  0
    6.6007    1.2711    4.9964 Li  0  0
    7.4610   -1.3360    3.9987 Li  0  0
    3.4393   -1.5559   -0.5107 Li  0  0
    5.3811   -1.5981    1.8703 Li  0  0
    4.4835    0.3308    3.4607 Li  0  0
M  END

> <TOTAL ENERGY>
ACCELRYS, TYPE=DOUBLE, VERSION=1                                                
  -142.82461473

> <BINDING ENERGY>
ACCELRYS, TYPE=DOUBLE, VERSION=1                                                
    -0.91864519

> <OPERATION STATUS>
ACCELRYS, TYPE=STATUS, VERSION=1                                                
SUCCESS

$$$$
