Materials Studio SDF calculation
TCVAMP81A 

  6  0  0  0  0  0              1 V2000
   -2.8228   -1.0125   -1.4873 Li  0  0
   -1.6323    1.8355   -0.8875 Li  0  0
   -0.5212   -0.5118   -0.2267 Li  0  0
    1.1100    1.5177    0.6267 Li  0  0
    1.6631   -1.5584    0.9915 Li  0  0
   -0.8160   -3.1335   -0.5157 Li  0  0
M  END

> <TOTAL ENERGY>
BIOVIA, TYPE=DOUBLE, VERSION=1                                                  
   -44.98619010

> <BINDING ENERGY>
BIOVIA, TYPE=DOUBLE, VERSION=1                                                  
    -0.17377867

> <OPERATION STATUS>
BIOVIA, TYPE=STATUS, VERSION=1                                                  
SUCCESS

$$$$
