Materials Studio SDF calculation
TCVAMP81A 

 19  0  0  0  0  0              1 V2000
   -2.6287    1.9500    0.5259 Li  0  0
   -2.7765    0.3817   -1.9159 Li  0  0
   -2.8185   -0.9461    0.6685 Li  0  0
   -4.6464    0.5741   -2.3006 Li  0  0
   -4.5031    2.3670   -0.2896 Li  0  0
   -4.5201    0.3538    1.5065 Li  0  0
   -4.6635   -1.4391   -0.5045 Li  0  0
    1.7525   -0.0046   -0.5537 Li  0  0
    0.3058   -0.8572   -2.9807 Li  0  0
    0.3018    1.8496   -2.8204 Li  0  0
    0.6513   -1.1336    1.6949 Li  0  0
    0.4805   -2.3488   -0.7230 Li  0  0
    0.4727    3.0648   -0.4025 Li  0  0
    0.6474    1.5732    1.8552 Li  0  0
   -1.1046    0.5321   -2.3006 Li  0  0
   -0.9612    2.3250   -0.2896 Li  0  0
   -0.9783    0.3118    1.5065 Li  0  0
   -1.1216   -1.4811   -0.5045 Li  0  0
   -6.2326    0.4108    0.0947 Li  0  0
M  END

> <TOTAL ENERGY>
ACCELRYS, TYPE=DOUBLE, VERSION=1                                                
  -142.72076024

> <BINDING ENERGY>
ACCELRYS, TYPE=DOUBLE, VERSION=1                                                
    -0.81479070

> <OPERATION STATUS>
ACCELRYS, TYPE=STATUS, VERSION=1                                                
SUCCESS

$$$$
