Materials Studio SDF calculation
TCVAMP81A 

 19  0  0  0  0  0              1 V2000
   -3.0650    1.8386    0.6498 Li  0  0
   -3.2193    0.4576   -1.9100 Li  0  0
   -3.1694   -1.0563    0.5721 Li  0  0
   -4.8128   -0.8174   -2.1792 Li  0  0
   -4.8278    1.8557   -2.1056 Li  0  0
   -4.6418    2.6124    0.4454 Li  0  0
   -4.5015    0.3973    1.9227 Li  0  0
   -4.6002   -1.7244    0.3157 Li  0  0
   -6.1570    0.6186   -2.3748 Li  0  0
   -6.2322    2.3908   -0.3336 Li  0  0
   -6.1951    0.3744    1.4705 Li  0  0
   -6.2890   -1.3963   -0.5754 Li  0  0
   -0.4679    0.4289   -0.5598 Li  0  0
   -1.9641   -0.5238   -3.0246 Li  0  0
   -1.9237    2.1821   -2.8370 Li  0  0
   -1.7210   -0.7590    1.6933 Li  0  0
   -1.9761   -1.9631   -0.7279 Li  0  0
   -1.6769    3.3965   -0.4152 Li  0  0
   -1.5071    1.9347    1.8693 Li  0  0
M  END

> <TOTAL ENERGY>
ACCELRYS, TYPE=DOUBLE, VERSION=1                                                
  -142.73842888

> <BINDING ENERGY>
ACCELRYS, TYPE=DOUBLE, VERSION=1                                                
    -0.83245933

> <OPERATION STATUS>
ACCELRYS, TYPE=STATUS, VERSION=1                                                
SUCCESS

$$$$
