Materials Studio SDF calculation
TCVAMP81A 

 19  0  0  0  0  0              1 V2000
    6.0434    2.7580   -5.0159 Li  0  0
    6.4089    4.0907    2.3019 Li  0  0
    4.4082   -1.7767    2.6406 Li  0  0
    7.2737    0.5958    3.6040 Li  0  0
    3.4443    1.5102   -2.5687 Li  0  0
    7.0889    0.0881   -2.6151 Li  0  0
    7.6753   -1.7987    0.6438 Li  0  0
    6.2410    4.0309   -1.5051 Li  0  0
    3.6334    1.8263    3.6550 Li  0  0
    1.7892    0.2396    0.6802 Li  0  0
    2.9920    3.8687    0.4803 Li  0  0
    4.2584   -2.0206   -1.1777 Li  0  0
    5.3734    1.0656    0.4838 Li  0  0
    8.9200    1.8658    0.3504 Li  0  0
    9.3839    2.9750   -3.2352 Li  0  0
    0.2843    3.5466   -3.3478 Li  0  0
    1.3124    1.2446   -4.0551 Li  0  0
    3.4252    1.1737   -5.6002 Li  0  0
    0.2276   -0.9865   -3.2174 Li  0  0
M  END

> <TOTAL ENERGY>
ACCELRYS, TYPE=DOUBLE, VERSION=1                                                
  -142.82366375

> <BINDING ENERGY>
ACCELRYS, TYPE=DOUBLE, VERSION=1                                                
    -0.91769420

> <OPERATION STATUS>
ACCELRYS, TYPE=STATUS, VERSION=1                                                
SUCCESS

$$$$
