Materials Studio SDF calculation
TCVAMP81A 

 19  0  0  0  0  0              1 V2000
   -1.4880    1.5678   -0.4975 Li  0  0
    0.9748    3.3769   -0.6774 Li  0  0
    3.2576    1.5584   -0.5102 Li  0  0
    3.0799   -1.3566   -0.5007 Li  0  0
    0.7668   -3.2822   -0.5937 Li  0  0
   -1.4529   -1.3426   -0.1808 Li  0  0
   -1.6043   -0.2681    2.4177 Li  0  0
    0.7206    1.4077    1.5756 Li  0  0
    2.8166    3.3354    1.7095 Li  0  0
    3.2738    0.1617    2.0012 Li  0  0
    0.8725   -1.5120    1.6233 Li  0  0
   -1.3218   -3.4651    1.7037 Li  0  0
   -1.2699   -0.0584   -2.9933 Li  0  0
    0.8008    1.9462   -3.1867 Li  0  0
    3.2934    3.5775   -2.5833 Li  0  0
    3.1779    0.3904   -3.1559 Li  0  0
    1.1418   -1.7101   -3.2116 Li  0  0
   -1.5392   -3.0327   -2.3475 Li  0  0
    0.8520    0.0499   -1.0961 Li  0  0
M  END

> <TOTAL ENERGY>
BIOVIA, TYPE=DOUBLE, VERSION=1                                                  
  -142.72598668

> <BINDING ENERGY>
BIOVIA, TYPE=DOUBLE, VERSION=1                                                  
    -0.82001713

> <OPERATION STATUS>
BIOVIA, TYPE=STATUS, VERSION=1                                                  
SUCCESS

$$$$
