Materials Studio SDF calculation
TCVAMP81A 

  6  0  0  0  0  0              1 V2000
  -10.0563    0.7171    0.0000 Li  0  0
   -7.2047    0.8096   -0.0000 Li  0  0
   -4.1658    0.9280    0.0000 Li  0  0
   -1.2896    1.0256    0.0000 Li  0  0
    1.7465    1.1442   -0.0000 Li  0  0
    4.5768    1.2351   -0.0000 Li  0  0
M  END

> <TOTAL ENERGY>
BIOVIA, TYPE=DOUBLE, VERSION=1                                                  
   -44.91266901

> <BINDING ENERGY>
BIOVIA, TYPE=DOUBLE, VERSION=1                                                  
    -0.10025757

> <OPERATION STATUS>
BIOVIA, TYPE=STATUS, VERSION=1                                                  
SUCCESS

$$$$
