Materials Studio SDF calculation
TCVAMP81A 

 19  0  0  0  0  0              1 V2000
   -1.4161    2.7837    3.7312 Li  0  0
   -2.6700    1.3846    0.9373 Li  0  0
   -1.2806    0.0559    3.0197 Li  0  0
   -5.1729    0.5221    6.4518 Li  0  0
   -6.3557   -0.8677    3.6639 Li  0  0
   -4.8416   -3.6466    4.3843 Li  0  0
   -3.6515   -2.2265    7.2127 Li  0  0
   -2.0738    0.5326    5.7618 Li  0  0
   -3.8272    1.2174    3.5311 Li  0  0
   -3.6342   -1.3233    2.1025 Li  0  0
   -1.8549   -2.4200    4.5255 Li  0  0
   -6.4672   -2.1140    6.3274 Li  0  0
   -4.1387   -1.2305    4.9029 Li  0  0
   -4.0575    3.9008    2.3069 Li  0  0
   -2.7365    0.9074    1.1670 Li  0  0
   -5.2071    2.0163    0.6749 Li  0  0
   -5.8238   -0.5648    1.4308 Li  0  0
   -7.1563    2.4281    2.5743 Li  0  0
   -4.6842    1.3221    3.0729 Li  0  0
M  END

> <TOTAL ENERGY>
ACCELRYS, TYPE=DOUBLE, VERSION=1                                                
  -142.74829622

> <BINDING ENERGY>
ACCELRYS, TYPE=DOUBLE, VERSION=1                                                
    -0.84232668

> <OPERATION STATUS>
ACCELRYS, TYPE=STATUS, VERSION=1                                                
SUCCESS

$$$$
