Materials Studio SDF calculation
TCVAMP81A 

 19  0  0  0  0  0              1 V2000
   -2.8878   -2.6741    0.3524 Li  0  0
   -0.2777   -0.1077   -3.4167 Li  0  0
    0.7058   -1.6421    3.5494 Li  0  0
    1.3245    1.0192    2.1046 Li  0  0
    0.5306    0.5280   -0.7449 Li  0  0
    2.3547   -1.1192   -2.2785 Li  0  0
   -2.3653   -0.0154   -1.1180 Li  0  0
   -0.2995   -2.3147   -1.2684 Li  0  0
   -3.5458   -0.0156    1.7231 Li  0  0
    1.9314    1.9090   -2.7976 Li  0  0
   -0.2610   -3.6919    1.4907 Li  0  0
    1.9515   -1.6799    0.7342 Li  0  0
    1.2661    3.2264   -0.1790 Li  0  0
   -1.3272    0.5991    3.7107 Li  0  0
   -0.8670   -0.9050    1.3221 Li  0  0
   -1.3772    2.0805    0.9275 Li  0  0
    3.3088    0.9635   -0.2157 Li  0  0
   -0.9671    2.5555   -2.1570 Li  0  0
   -2.2895   -2.2953    3.3366 Li  0  0
M  END

> <TOTAL ENERGY>
ACCELRYS, TYPE=DOUBLE, VERSION=1                                                
  -142.83909857

> <BINDING ENERGY>
ACCELRYS, TYPE=DOUBLE, VERSION=1                                                
    -0.93312903

> <OPERATION STATUS>
ACCELRYS, TYPE=STATUS, VERSION=1                                                
SUCCESS

$$$$
