Materials Studio SDF calculation
TCVAMP81A 

 19  0  0  0  0  0              1 V2000
    3.2353    1.2203    2.1038 Li  0  0
    5.7599    1.7082    0.8001 Li  0  0
    5.1534   -0.9217    1.8632 Li  0  0
    3.3134    2.9143   -0.3210 Li  0  0
    3.8024    0.0685   -0.4022 Li  0  0
    2.2749   -1.4933    1.4699 Li  0  0
    6.5766   -0.6924   -0.7044 Li  0  0
   -0.9615   -2.4314   -0.2313 Li  0  0
    2.1697   -2.3677   -0.0721 Li  0  0
    0.6535   -0.5204   -1.8211 Li  0  0
    0.4936   -0.1474    0.9512 Li  0  0
   -1.8647    0.3913   -0.6691 Li  0  0
    2.9967    0.4867   -0.4060 Li  0  0
    0.5353    2.0343   -0.7531 Li  0  0
   -1.2596    3.1903    0.6290 Li  0  0
    2.0832    3.2131    0.8701 Li  0  0
    2.3102    2.8265   -2.3827 Li  0  0
   -1.0847    2.7948   -2.5494 Li  0  0
    0.5415    4.8162   -1.0948 Li  0  0
M  END

> <TOTAL ENERGY>
ACCELRYS, TYPE=DOUBLE, VERSION=1                                                
  -142.71841232

> <BINDING ENERGY>
ACCELRYS, TYPE=DOUBLE, VERSION=1                                                
    -0.81244278

> <OPERATION STATUS>
ACCELRYS, TYPE=STATUS, VERSION=1                                                
SUCCESS

$$$$
