Materials Studio SDF calculation
TCVAMP81A 

 19  0  0  0  0  0              1 V2000
    5.2650   -0.0353    0.0568 Li  0  0
    3.7487   -1.6905   -1.6505 Li  0  0
    4.7152   -4.2487   -0.2397 Li  0  0
    6.4809   -2.3593   -1.6279 Li  0  0
    6.4969    0.4036   -2.3697 Li  0  0
    3.6758    1.4245   -1.5027 Li  0  0
    4.2566    2.0660    1.5037 Li  0  0
    7.1513    2.0438    0.2499 Li  0  0
    8.1686   -0.7085    0.0728 Li  0  0
    7.8222   -3.7837    0.3833 Li  0  0
    5.9357   -4.5933    2.5977 Li  0  0
    5.6126   -2.1986    1.4285 Li  0  0
    2.5238   -0.4549    0.7131 Li  0  0
    3.9007   -0.3027    3.1542 Li  0  0
    6.6804    0.4663    2.6840 Li  0  0
    9.5166    0.8332    2.1107 Li  0  0
    8.2411   -1.9658    2.6944 Li  0  0
    5.7222   -2.1120    4.2926 Li  0  0
    3.1531   -3.0545    2.3173 Li  0  0
M  END

> <TOTAL ENERGY>
ACCELRYS, TYPE=DOUBLE, VERSION=1                                                
  -142.82320028

> <BINDING ENERGY>
ACCELRYS, TYPE=DOUBLE, VERSION=1                                                
    -0.91723074

> <OPERATION STATUS>
ACCELRYS, TYPE=STATUS, VERSION=1                                                
SUCCESS

$$$$
