Materials Studio SDF calculation
TCVAMP81A 

 19  0  0  0  0  0              1 V2000
    0.1349    3.5828    2.4718 Li  0  0
   -2.9679   -2.4763   -0.0364 Li  0  0
   -0.1731   -0.0149   -3.9055 Li  0  0
    0.5872   -1.6065    3.1730 Li  0  0
    1.3206    1.0524    1.7234 Li  0  0
    2.3568   -1.1260   -2.6689 Li  0  0
   -2.2441    0.0475   -1.6560 Li  0  0
   -0.3865   -2.2906   -1.6818 Li  0  0
   -0.9101   -0.8038    0.8845 Li  0  0
    0.5693    0.4990   -1.1748 Li  0  0
   -0.4546   -3.5790    1.1421 Li  0  0
    1.8363   -1.6861    0.3656 Li  0  0
    1.3917    3.1750   -0.3541 Li  0  0
   -1.1886    0.8994    3.2651 Li  0  0
   -2.3703   -2.0441    2.9384 Li  0  0
   -1.3226    2.1102    0.5049 Li  0  0
    3.3708    0.8300   -0.5553 Li  0  0
   -0.7857    2.5870   -2.4303 Li  0  0
    2.1143    1.8677   -3.0893 Li  0  0
M  END

> <TOTAL ENERGY>
ACCELRYS, TYPE=DOUBLE, VERSION=1                                                
  -142.82608587

> <BINDING ENERGY>
ACCELRYS, TYPE=DOUBLE, VERSION=1                                                
    -0.92011633

> <OPERATION STATUS>
ACCELRYS, TYPE=STATUS, VERSION=1                                                
SUCCESS

$$$$
