Materials Studio SDF calculation
TCVAMP81A 

 19  0  0  0  0  0              1 V2000
   -3.6258    0.7290   -1.8342 Li  0  0
    0.4076    0.9306   -3.7611 Li  0  0
    1.0979    2.1636    1.8546 Li  0  0
    3.8150    0.1731    0.6238 Li  0  0
    1.8210   -0.5097    3.0559 Li  0  0
   -1.4555   -0.0169   -1.7315 Li  0  0
    1.2331   -0.8408   -1.6189 Li  0  0
    2.0841   -2.5293    0.6381 Li  0  0
    2.2011   -2.4209   -2.3802 Li  0  0
   -1.0499    0.5325    3.0845 Li  0  0
   -2.6430   -0.8427    0.8158 Li  0  0
   -1.7172    1.9361    0.5686 Li  0  0
   -0.6805   -2.6993   -0.7277 Li  0  0
   -0.2847    2.9390    3.5433 Li  0  0
    2.2218    0.5107    0.1554 Li  0  0
    3.3223    1.1617   -2.4582 Li  0  0
   -1.5860    2.8199   -2.1515 Li  0  0
    0.0568    4.2531    0.1432 Li  0  0
    3.0931    3.3201   -0.0654 Li  0  0
M  END

> <TOTAL ENERGY>
ACCELRYS, TYPE=DOUBLE, VERSION=1                                                
  -142.74870521

> <BINDING ENERGY>
ACCELRYS, TYPE=DOUBLE, VERSION=1                                                
    -0.84273566

> <OPERATION STATUS>
ACCELRYS, TYPE=STATUS, VERSION=1                                                
SUCCESS

$$$$
