Materials Studio SDF calculation
TCVAMP81A 

 19  0  0  0  0  0              1 V2000
    3.5371   -3.8067    1.0902 Li  0  0
    2.4650   -1.1389    1.6892 Li  0  0
    1.6180    0.8189   -0.3077 Li  0  0
    6.6996   -0.2181   -0.6673 Li  0  0
    4.0024   -2.7653    3.7752 Li  0  0
    2.3179    1.6562    2.5754 Li  0  0
    4.3787    0.9932    0.6243 Li  0  0
    8.3025   -1.9796    1.4248 Li  0  0
    2.0670   -0.6742    4.6125 Li  0  0
    5.2068    2.7933    2.8427 Li  0  0
    7.1056    0.6405    2.0835 Li  0  0
    6.2790   -4.2158    2.6148 Li  0  0
    4.7384   -1.0011    6.0954 Li  0  0
    3.6956    1.8674    5.4303 Li  0  0
    6.7105    1.2204    5.0003 Li  0  0
    6.8446   -1.6689    4.0063 Li  0  0
    3.7394   -1.3423   -0.8693 Li  0  0
    5.4658   -1.7312    1.4499 Li  0  0
    4.5634    0.1417    3.5543 Li  0  0
M  END

> <TOTAL ENERGY>
ACCELRYS, TYPE=DOUBLE, VERSION=1                                                
  -142.75334716

> <BINDING ENERGY>
ACCELRYS, TYPE=DOUBLE, VERSION=1                                                
    -0.81704194

> <OPERATION STATUS>
ACCELRYS, TYPE=STATUS, VERSION=1                                                
SUCCESS

$$$$
