Materials Studio SDF calculation
TCVAMP81A 

 19  0  0  0  0  0              1 V2000
   -2.2711    0.8676    0.5628 Li  0  0
    0.0475    2.9949    0.9063 Li  0  0
    2.8317    1.4491    1.4235 Li  0  0
    0.6163    0.3564   -0.6045 Li  0  0
   -1.0166   -2.0221    0.7526 Li  0  0
   -1.7843    2.3474    3.0189 Li  0  0
    1.3035    2.7590    3.5050 Li  0  0
    2.5539   -0.1881    3.7076 Li  0  0
    2.1010   -1.6901    1.2364 Li  0  0
    0.2276   -2.3219    3.3749 Li  0  0
   -1.6996   -1.9995    5.5322 Li  0  0
   -2.4432   -0.7785    2.9689 Li  0  0
   -2.9737    0.9111    5.2815 Li  0  0
   -0.7029    3.1069    5.5529 Li  0  0
    2.1290    1.5027    5.9705 Li  0  0
    1.4248   -1.6247    5.9780 Li  0  0
   -0.5703    0.4528    7.2355 Li  0  0
    0.2234    0.3515    1.9798 Li  0  0
   -0.2185    0.3700    4.6906 Li  0  0
M  END

> <TOTAL ENERGY>
ACCELRYS, TYPE=DOUBLE, VERSION=1                                                
  -142.74982325

> <BINDING ENERGY>
ACCELRYS, TYPE=DOUBLE, VERSION=1                                                
    -0.81351803

> <OPERATION STATUS>
ACCELRYS, TYPE=STATUS, VERSION=1                                                
SUCCESS

$$$$
