Materials Studio SDF calculation
TCVAMP81A 

 19  0  0  0  0  0              1 V2000
    9.6851    1.6113   -0.2516 Li  0  0
    8.8508    4.5038   -1.6382 Li  0  0
    9.7734    4.0687   -4.7397 Li  0  0
    8.5287    1.8194   -3.0996 Li  0  0
    9.6723   -0.8927   -2.1739 Li  0  0
   11.5471   -1.1346    0.1883 Li  0  0
   11.3407    4.1257    0.0901 Li  0  0
   12.5093    5.3653   -2.3501 Li  0  0
   12.8286    3.3572   -4.5625 Li  0  0
   11.0455    0.8740   -4.4863 Li  0  0
   10.7698   -3.0435   -1.6690 Li  0  0
   12.4739    1.6677    0.8932 Li  0  0
   14.5401    0.4926   -0.8645 Li  0  0
   12.6318   -1.6443   -2.8174 Li  0  0
   13.9853    0.8961   -3.7555 Li  0  0
   15.4767    3.4798   -2.8358 Li  0  0
   14.4905    3.9475    0.3013 Li  0  0
   10.1131    6.6547   -3.2850 Li  0  0
   14.9112    5.9317   -1.9314 Li  0  0
M  END

> <TOTAL ENERGY>
ACCELRYS, TYPE=DOUBLE, VERSION=1                                                
  -142.73893842

> <BINDING ENERGY>
ACCELRYS, TYPE=DOUBLE, VERSION=1                                                
    -0.83296888

> <OPERATION STATUS>
ACCELRYS, TYPE=STATUS, VERSION=1                                                
SUCCESS

$$$$
