Materials Studio SDF calculation
TCVAMP81A 

 19  0  0  0  0  0              1 V2000
    2.8359   -3.9101    0.3539 Li  0  0
    1.7861   -1.0499   -0.3627 Li  0  0
    4.2468    0.5652   -1.0537 Li  0  0
    4.1653   -2.3631   -1.8861 Li  0  0
    2.0708   -1.8163    2.5633 Li  0  0
    2.8974    0.8703    1.5590 Li  0  0
    6.7912   -1.1479   -0.6597 Li  0  0
    5.9743   -3.8914    0.2863 Li  0  0
    3.1568   -2.2740    5.2938 Li  0  0
    2.0460    0.5218    4.3939 Li  0  0
    5.9655    0.7991    1.3761 Li  0  0
    7.0987   -1.7503    2.2572 Li  0  0
    6.2635   -2.1793    5.2079 Li  0  0
    4.6741    0.3575    6.1603 Li  0  0
    4.5582    2.2166    3.6400 Li  0  0
    7.1023    0.5445    4.1444 Li  0  0
    4.3471   -1.5760    0.7229 Li  0  0
    4.7698   -3.4224    2.9902 Li  0  0
    4.5647   -0.5694    3.5854 Li  0  0
M  END

> <TOTAL ENERGY>
BIOVIA, TYPE=DOUBLE, VERSION=1                                                  
  -142.73223080

> <BINDING ENERGY>
BIOVIA, TYPE=DOUBLE, VERSION=1                                                  
    -0.82626126

> <OPERATION STATUS>
BIOVIA, TYPE=STATUS, VERSION=1                                                  
SUCCESS

$$$$
