Materials Studio SDF calculation
TCVAMP81A 

  6  0  0  0  0  0              1 V2000
   -7.1756    1.3001   -0.3600 Li  0  0
   -9.8669    0.3351   -0.0082 Li  0  0
   -7.7097   -1.3090    0.7728 Li  0  0
   -8.4027    1.1208    2.2686 Li  0  0
   -9.9263   -1.3057    2.5748 Li  0  0
   -7.2122   -1.1090    3.5868 Li  0  0
M  END

> <TOTAL ENERGY>
BIOVIA, TYPE=DOUBLE, VERSION=1                                                  
   -44.99067338

> <BINDING ENERGY>
BIOVIA, TYPE=DOUBLE, VERSION=1                                                  
    -0.17826194

> <OPERATION STATUS>
BIOVIA, TYPE=STATUS, VERSION=1                                                  
SUCCESS

$$$$
