Materials Studio SDF calculation
TCVAMP81A 

 12  0  0  0  0  0              1 V2000
   -4.1625   -2.4827    0.0000 Li  0  0
   -1.5426   -2.4581    0.0000 Li  0  0
   -3.0416   -0.1740   -0.9053 Li  0  0
   -3.0100    0.0812    1.3116 Li  0  0
   -5.6387    1.7674   -0.2046 Li  0  0
   -1.0016    1.8060   -0.2475 Li  0  0
   -2.9559    2.0573   -0.5635 Li  0  0
   -4.5950    3.3927    0.4097 Li  0  0
   -2.0009    3.2368    0.7431 Li  0  0
   -1.6511    2.9375   -1.8361 Li  0  0
   -4.2541    3.1032   -2.0832 Li  0  0
   -2.8787    4.8650   -0.7128 Li  0  0
M  END

> <TOTAL ENERGY>
ACCELRYS, TYPE=DOUBLE, VERSION=1                                                
   -90.09306669

> <BINDING ENERGY>
ACCELRYS, TYPE=DOUBLE, VERSION=1                                                
    -0.46824382

> <OPERATION STATUS>
ACCELRYS, TYPE=STATUS, VERSION=1                                                
SUCCESS

$$$$
