Materials Studio SDF calculation
TCVAMP81A 

 12  0  0  0  0  0              1 V2000
   -3.1316    2.7345    0.0000 Li  0  0
   -4.5942    0.9009    0.0000 Li  0  0
   -3.3023   -1.0567    0.0000 Li  0  0
   -1.0413   -0.4330    0.0000 Li  0  0
   -0.9358    1.9101    0.0000 Li  0  0
   -2.5036    0.8482   -1.3000 Li  0  0
   -2.5273    0.9527    1.3179 Li  0  0
   -4.4396    1.5396    3.3167 Li  0  0
   -3.2289   -0.7769    3.4964 Li  0  0
   -0.9364    0.3121    2.8462 Li  0  0
   -2.1612    2.6215    2.6706 Li  0  0
   -2.4798    1.1225    4.5521 Li  0  0
M  END

> <TOTAL ENERGY>
ACCELRYS, TYPE=DOUBLE, VERSION=1                                                
   -90.08709655

> <BINDING ENERGY>
ACCELRYS, TYPE=DOUBLE, VERSION=1                                                
    -0.46227368

> <OPERATION STATUS>
ACCELRYS, TYPE=STATUS, VERSION=1                                                
SUCCESS

$$$$
