Materials Studio SDF calculation
TCVAMP81A 

 19  0  0  0  0  0              1 V2000
   -5.9231    1.6221    1.0320 Li  0  0
   -6.0196    0.2386   -1.5215 Li  0  0
   -6.1132   -1.2765    0.9564 Li  0  0
   -4.8000   -0.8194   -2.2360 Li  0  0
   -4.7630    1.8402   -2.1647 Li  0  0
   -4.6266    2.5926    0.3839 Li  0  0
   -4.5793    0.3979    1.8877 Li  0  0
   -4.6865   -1.7108    0.2685 Li  0  0
   -7.5281    0.5741   -2.3006 Li  0  0
   -7.3848    2.3670   -0.2896 Li  0  0
   -7.4018    0.3538    1.5065 Li  0  0
   -7.5452   -1.4391   -0.5045 Li  0  0
   -1.7560    0.2601    0.0116 Li  0  0
   -3.1070    1.7298    0.8334 Li  0  0
   -3.2034    0.3463   -1.7201 Li  0  0
   -3.2971   -1.1687    0.7577 Li  0  0
   -8.9629    1.6132    1.6529 Li  0  0
   -9.0593    0.2297   -0.9006 Li  0  0
   -9.1530   -1.2854    1.5772 Li  0  0
M  END

> <TOTAL ENERGY>
ACCELRYS, TYPE=DOUBLE, VERSION=1                                                
  -142.74884607

> <BINDING ENERGY>
ACCELRYS, TYPE=DOUBLE, VERSION=1                                                
    -0.84287653

> <OPERATION STATUS>
ACCELRYS, TYPE=STATUS, VERSION=1                                                
SUCCESS

$$$$
