Materials Studio SDF calculation
TCVAMP81A 

 15  0  0  0  0  0              1 V2000
    9.7347   11.1498    9.9285 Li  0  0
   11.3888   10.2608    8.0850 Li  0  0
    8.5568   10.2164   14.6284 Li  0  0
   11.3731   13.2571    9.8360 Li  0  0
    8.4003    7.4999   12.8380 Li  0  0
    7.5001   10.1749   11.4749 Li  0  0
   12.2369   10.5155   11.2268 Li  0  0
    9.9765    9.7134   12.4890 Li  0  0
    7.9061   13.0458    9.9655 Li  0  0
   11.7615   10.7131   14.3113 Li  0  0
    7.9530   10.0134    8.3043 Li  0  0
    9.8533   12.4239   12.5204 Li  0  0
    9.8821    8.2721   10.1901 Li  0  0
   11.6478    7.7548   12.9586 Li  0  0
    9.5267   12.5256    7.4999 Li  0  0
M  END

> <TOTAL ENERGY>
ACCELRYS, TYPE=DOUBLE, VERSION=1                                                
  -112.66303656

> <BINDING ENERGY>
ACCELRYS, TYPE=DOUBLE, VERSION=1                                                
    -0.60805876

> <OPERATION STATUS>
ACCELRYS, TYPE=STATUS, VERSION=1                                                
SUCCESS

$$$$
