Materials Studio SDF calculation
TCVAMP81A 

 19  0  0  0  0  0              1 V2000
    0.0054    0.0073    0.2993 Li  0  0
    0.0015   -0.0508    1.6556 Li  0  0
    1.0444   -1.5498    0.8395 Li  0  0
   -1.0329   -1.4419    0.9244 Li  0  0
   -1.6806    0.6177    0.9018 Li  0  0
    0.0982    1.7862    0.8926 Li  0  0
    1.7083    0.4617    0.9675 Li  0  0
   -0.6088   -1.8118   -0.2585 Li  0  0
   -1.8791    0.0070   -0.2215 Li  0  0
   -0.6098    1.7963   -0.2148 Li  0  0
    1.5891    1.0490   -0.1951 Li  0  0
    1.5612   -1.0953   -0.2561 Li  0  0
    0.0278   -0.0220   -0.7577 Li  0  0
    0.0032    0.0477   -2.1154 Li  0  0
   -1.7058   -0.6228   -1.3373 Li  0  0
    0.0578   -1.7766   -1.3940 Li  0  0
   -1.0295    1.4199   -1.3936 Li  0  0
    1.0717    1.5055   -1.2979 Li  0  0
    1.7228   -0.5075   -1.4044 Li  0  0
M  END

> <TOTAL ENERGY>
BIOVIA, TYPE=DOUBLE, VERSION=1                                                  
  -142.73654094

> <BINDING ENERGY>
BIOVIA, TYPE=DOUBLE, VERSION=1                                                  
    -0.83057140

> <OPERATION STATUS>
BIOVIA, TYPE=STATUS, VERSION=1                                                  
SUCCESS

$$$$
