Materials Studio SDF calculation
TCVAMP81A 

 19  0  0  0  0  0              1 V2000
   -3.8436    1.0253   -1.5601 Li  0  0
    0.8595    1.4511   -3.2767 Li  0  0
    0.6541    2.1813    1.7147 Li  0  0
    0.0751   -2.8130    2.6133 Li  0  0
    1.7131   -0.3543    2.9483 Li  0  0
   -2.7998   -1.9685   -2.5110 Li  0  0
    0.7442   -1.5518   -2.5480 Li  0  0
    2.0639   -1.8871    0.3218 Li  0  0
    2.3970    3.0159   -1.0965 Li  0  0
   -1.1963    0.1484    3.6006 Li  0  0
   -3.2100   -1.1509    0.3928 Li  0  0
   -2.2846    1.6039    1.0416 Li  0  0
   -0.7811   -2.8712   -0.4389 Li  0  0
   -0.4227   -0.5791    1.1621 Li  0  0
    3.4694    0.9040    0.8792 Li  0  0
    3.3673    0.1024   -2.0934 Li  0  0
   -0.7036    2.8875   -1.0542 Li  0  0
   -1.3291    0.0758   -1.5006 Li  0  0
    1.1932    0.6770   -0.6242 Li  0  0
M  END

> <TOTAL ENERGY>
ACCELRYS, TYPE=DOUBLE, VERSION=1                                                
  -142.82397101

> <BINDING ENERGY>
ACCELRYS, TYPE=DOUBLE, VERSION=1                                                
    -0.91800147

> <OPERATION STATUS>
ACCELRYS, TYPE=STATUS, VERSION=1                                                
SUCCESS

$$$$
