Materials Studio SDF calculation
TCVAMP81A 

  6  0  0  0  0  0              1 V2000
   -6.1178   -1.6049    0.0000 Li  0  0
   -4.7762    0.6455    0.0000 Li  0  0
   -3.6279   -1.7094    0.0000 Li  0  0
   -2.0897    0.4115    0.0000 Li  0  0
   -1.1153   -2.0205    0.0000 Li  0  0
   -3.6498   -1.7107    1.5526 Li  0  0
M  END

> <TOTAL ENERGY>
ACCELRYS, TYPE=DOUBLE, VERSION=1                                                
   -44.99272023

> <BINDING ENERGY>
ACCELRYS, TYPE=DOUBLE, VERSION=1                                                
    -0.18030879

> <OPERATION STATUS>
ACCELRYS, TYPE=STATUS, VERSION=1                                                
SUCCESS

$$$$
