Materials Studio SDF calculation
TCVAMP81A 

 19  0  0  0  0  0              1 V2000
    5.0064    0.0077    0.5158 Li  0  0
    3.8623   -1.8460   -1.1665 Li  0  0
    4.8582   -4.5127   -0.1974 Li  0  0
    6.6296   -2.7207   -1.7167 Li  0  0
    6.3586    0.1180   -2.0540 Li  0  0
    3.8034    1.5690   -1.4137 Li  0  0
    4.1971    2.3938    1.6565 Li  0  0
    6.9497    2.0656    0.2084 Li  0  0
    8.1680   -0.7294   -0.0113 Li  0  0
    8.0827   -4.1332    0.4270 Li  0  0
    6.0723   -4.6956    2.6023 Li  0  0
    6.0117   -2.3827    1.1307 Li  0  0
    2.2261    0.1743    0.6168 Li  0  0
    3.6401   -0.0914    3.1718 Li  0  0
    6.5881    0.4086    2.6808 Li  0  0
    9.3263    0.9997    1.9575 Li  0  0
    8.3700   -2.0559    2.7219 Li  0  0
    5.5684   -2.1347    3.9464 Li  0  0
    3.3480   -2.7051    1.7921 Li  0  0
M  END

> <TOTAL ENERGY>
ACCELRYS, TYPE=DOUBLE, VERSION=1                                                
  -142.82355893

> <BINDING ENERGY>
ACCELRYS, TYPE=DOUBLE, VERSION=1                                                
    -0.91758939

> <OPERATION STATUS>
ACCELRYS, TYPE=STATUS, VERSION=1                                                
SUCCESS

$$$$
