Materials Studio SDF calculation
TCVAMP81A 

 19  0  0  0  0  0              1 V2000
   -6.0271    1.5154    6.2703 Li  0  0
   -8.5643    0.4928    5.1076 Li  0  0
   -7.9842   -1.9674    3.5573 Li  0  0
   -5.0573   -2.5219    3.6196 Li  0  0
   -3.8513   -0.2830    5.3323 Li  0  0
   -6.1155    0.2032    3.6787 Li  0  0
   -6.4244   -1.2828    5.9154 Li  0  0
   -7.2711    3.1296    0.6009 Li  0  0
   -8.9945    0.4316    0.2349 Li  0  0
   -7.3050   -1.7303   -0.8121 Li  0  0
   -4.6531   -1.0850    0.2314 Li  0  0
   -4.3118    2.0999    0.5863 Li  0  0
   -6.3916    0.8865   -1.7253 Li  0  0
   -6.5000    0.6012    0.8372 Li  0  0
   -7.6937    1.6164    3.1804 Li  0  0
   -7.2484   -1.4817    2.1258 Li  0  0
   -4.9408    0.6211    3.1648 Li  0  0
   -5.5100    3.3909    2.9500 Li  0  0
   -5.9144    2.1952    5.5256 Li  0  0
M  END

> <TOTAL ENERGY>
ACCELRYS, TYPE=DOUBLE, VERSION=1                                                
  -142.74874509

> <BINDING ENERGY>
ACCELRYS, TYPE=DOUBLE, VERSION=1                                                
    -0.84277555

> <OPERATION STATUS>
ACCELRYS, TYPE=STATUS, VERSION=1                                                
SUCCESS

$$$$
