Materials Studio SDF calculation
TCVAMP81A 

  4  0  0  0  0  0              1 V2000
    9.4589   13.5952    9.6391 Li  0  0
    8.3246   11.6420   10.4192 Li  0  0
    9.6821   11.5312    8.4558 Li  0  0
   10.7024   11.7952   10.6004 Li  0  0
M  END

> <TOTAL ENERGY>
BIOVIA, TYPE=DOUBLE, VERSION=1                                                  
   -29.95558212

> <BINDING ENERGY>
BIOVIA, TYPE=DOUBLE, VERSION=1                                                  
    -0.08064117

> <OPERATION STATUS>
BIOVIA, TYPE=STATUS, VERSION=1                                                  
SUCCESS

$$$$
