Materials Studio SDF calculation
TCVAMP81A 

 19  0  0  0  0  0              1 V2000
   -7.7095    2.0768   -0.8520 Li  0  0
   -6.9947   -0.7836    0.3956 Li  0  0
   -3.9924   -0.6329    1.5286 Li  0  0
   -2.8794    2.3035    0.9465 Li  0  0
   -5.7061    1.6867    1.1903 Mn  0  0
   -4.7930    0.9056   -1.1025 Li  0  0
   -9.3668    3.4825    3.3657 Li  0  0
   -6.8190    5.3958    3.7312 Li  0  0
   -4.5106    3.7253    5.1855 Li  0  0
   -5.6211    0.7879    5.7341 Li  0  0
   -8.6195    0.6381    4.6075 Li  0  0
   -7.5284    4.1230    1.2031 Li  0  0
   -4.5395    4.2642    2.3197 Li  0  0
   -3.8119    1.4434    3.5527 Li  0  0
   -6.3386   -0.4594    3.2037 Li  0  0
   -8.6351    1.2054    1.7580 Li  0  0
   -7.5416    3.2528    5.9389 Li  0  0
   -6.6311    2.5243    3.6236 Mn  0  0
   -5.1797    3.9759   -0.4953 Li  0  0
M  END

> <TOTAL ENERGY>
ACCELRYS, TYPE=DOUBLE, VERSION=1                                                
  -371.67443921

> <BINDING ENERGY>
ACCELRYS, TYPE=DOUBLE, VERSION=1                                                
    -0.97706454

> <OPERATION STATUS>
ACCELRYS, TYPE=STATUS, VERSION=1                                                
SUCCESS

$$$$
