Materials Studio SDF calculation
TCVAMP81A 

  1  0  0  0  0  0              1 V2000
   -5.5163    0.3202   -0.2444 Na  0  0
M  END

> <TOTAL ENERGY>
BIOVIA, TYPE=DOUBLE, VERSION=1                                                  
  -162.25262829

> <BINDING ENERGY>
BIOVIA, TYPE=DOUBLE, VERSION=1                                                  
     0.00608124

> <HOMO ENERGY>
BIOVIA, TYPE=DOUBLE, VERSION=1                                                  
    -0.09049126

> <LUMO ENERGY>
BIOVIA, TYPE=DOUBLE, VERSION=1                                                  
    -0.03502584

> <LUMO-HOMO ENERGY>
BIOVIA, TYPE=DOUBLE, VERSION=1                                                  
     0.05546542

> <OPERATION STATUS>
BIOVIA, TYPE=STATUS, VERSION=1                                                  
SUCCESS

$$$$
