Materials Studio SDF calculation
TCVAMP81A 

  6  0  0  0  0  0              1 V2000
   -3.3080   -0.4616   -1.7376 Li  0  0
   -1.6234    1.8597   -0.9486 Li  0  0
   -0.6961   -0.9029   -0.3016 Li  0  0
    0.9752    1.4244    0.4801 Li  0  0
    1.9210   -1.3346    1.1368 Li  0  0
    0.0440    4.1967   -0.1696 Li  0  0
M  END

> <TOTAL ENERGY>
BIOVIA, TYPE=DOUBLE, VERSION=1                                                  
   -44.98097121

> <BINDING ENERGY>
BIOVIA, TYPE=DOUBLE, VERSION=1                                                  
    -0.16855978

> <OPERATION STATUS>
BIOVIA, TYPE=STATUS, VERSION=1                                                  
SUCCESS

$$$$
