Materials Studio SDF calculation
TCVAMP81A 

  6  0  0  0  0  0              1 V2000
   -8.1201    1.3132   -1.2829 Li  0  0
   -9.6583    0.0432    0.5679 Li  0  0
   -7.0630   -0.2408    0.6073 Li  0  0
   -8.1795    1.8187    2.0474 Li  0  0
   -8.5497   -1.4698    2.5567 Li  0  0
   -8.5784   -1.9647   -0.9641 Li  0  0
M  END

> <TOTAL ENERGY>
BIOVIA, TYPE=DOUBLE, VERSION=1                                                  
   -44.99255134

> <BINDING ENERGY>
BIOVIA, TYPE=DOUBLE, VERSION=1                                                  
    -0.18013991

> <OPERATION STATUS>
BIOVIA, TYPE=STATUS, VERSION=1                                                  
SUCCESS

$$$$
