Materials Studio SDF calculation
TCVAMP81A 

 19  0  0  0  0  0              1 V2000
   -1.0134    0.5415   -1.7655 Li  0  0
   -1.3173   -2.3073   -2.4204 Li  0  0
   -8.0594   -0.0881   -5.3038 Li  0  0
   -1.2230    2.1414   -6.4016 Li  0  0
   -2.2115   -0.4301   -7.1889 Li  0  0
   -0.9629   -2.8198   -5.3693 Li  0  0
    0.5019    1.9948   -3.9184 Li  0  0
    0.7438   -0.2277   -6.2552 Li  0  0
   -1.0155   -0.1350   -4.3207 Li  0  0
   -4.2014    2.1837   -6.8179 Li  0  0
   -7.3541    1.4974   -6.5418 Li  0  0
   -6.0198   -2.0035   -4.5146 Li  0  0
   -3.3774   -1.2854   -4.8401 Li  0  0
   -2.7361    1.8990   -3.9560 Li  0  0
   -5.4048    0.8678   -4.4913 Li  0  0
   -5.1922   -0.4632   -7.0673 Li  0  0
   -3.7789   -3.2065   -6.6608 Li  0  0
   -3.6555   -3.7456   -3.6830 Li  0  0
   -3.8990   -0.7988   -2.3241 Li  0  0
M  END

> <TOTAL ENERGY>
ACCELRYS, TYPE=DOUBLE, VERSION=1                                                
  -142.76034106

> <BINDING ENERGY>
ACCELRYS, TYPE=DOUBLE, VERSION=1                                                
    -0.82403584

> <OPERATION STATUS>
ACCELRYS, TYPE=STATUS, VERSION=1                                                
SUCCESS

$$$$
