Materials Studio SDF calculation
TCVAMP81A 

 19  0  0  0  0  0              1 V2000
   -3.7646    1.4029   -1.0650 Li  0  0
    0.8385    1.2856   -3.5722 Li  0  0
    1.1038    1.9514    2.1656 Li  0  0
   -0.7140   -2.6759    2.3779 Li  0  0
    1.6714   -0.9003    3.2187 Li  0  0
   -1.2750    0.0313   -1.7216 Li  0  0
    1.6382   -1.0072   -1.7228 Li  0  0
    1.9136   -2.7723    0.8425 Li  0  0
    1.0735    1.7579   -0.7954 Li  0  0
   -1.1535    0.1990    3.2631 Li  0  0
   -2.6973   -0.8454    0.7646 Li  0  0
   -1.5452    1.9423    0.7402 Li  0  0
   -0.7054   -2.7524   -0.6673 Li  0  0
    0.2095   -0.5064    0.8383 Li  0  0
    3.0948    0.0926    0.6397 Li  0  0
    3.4795    1.4527   -2.1636 Li  0  0
   -1.2535    3.0022   -2.0544 Li  0  0
    0.2854    4.2809    0.2419 Li  0  0
    1.6213    3.9451   -2.5067 Li  0  0
M  END

> <TOTAL ENERGY>
ACCELRYS, TYPE=DOUBLE, VERSION=1                                                
  -142.73859878

> <BINDING ENERGY>
ACCELRYS, TYPE=DOUBLE, VERSION=1                                                
    -0.83262924

> <OPERATION STATUS>
ACCELRYS, TYPE=STATUS, VERSION=1                                                
SUCCESS

$$$$
