Materials Studio SDF calculation
TCVAMP81A 

 19  0  0  0  0  0              1 V2000
   -2.0794    0.7832    0.1940 Li  0  0
    0.1200    2.8954    0.5674 Li  0  0
    2.6218    1.3183    1.1256 Li  0  0
    0.6164   -0.2776   -0.5007 Li  0  0
   -1.1648   -1.9735    1.6086 Li  0  0
   -1.7536    2.6483    3.0113 Li  0  0
    1.2276    2.8852    3.3889 Li  0  0
    3.0193    0.7032    3.8511 Li  0  0
    1.9919   -1.4495    2.1663 Li  0  0
    0.2159   -2.7323    4.0503 Li  0  0
   -2.3910   -1.9572    4.5473 Li  0  0
   -3.0465    0.1365    2.8363 Li  0  0
   -2.6221    1.0230    5.5616 Li  0  0
   -0.5896    3.1156    5.6760 Li  0  0
    1.7585    1.4531    6.3532 Li  0  0
    2.3266   -1.4865    5.3902 Li  0  0
   -0.4596   -1.0706    6.7803 Li  0  0
    0.0027    0.5592    1.9346 Li  0  0
   -0.0155    0.2705    4.5312 Li  0  0
M  END

> <TOTAL ENERGY>
BIOVIA, TYPE=DOUBLE, VERSION=1                                                  
  -142.73061218

> <BINDING ENERGY>
BIOVIA, TYPE=DOUBLE, VERSION=1                                                  
    -0.82464264

> <OPERATION STATUS>
BIOVIA, TYPE=STATUS, VERSION=1                                                  
SUCCESS

$$$$
