Materials Studio SDF calculation
TCVAMP81A 

  4  0  0  0  0  0              1 V2000
   11.2073   12.9129    8.7331 Li  0  0
    8.8072   12.9379    9.4393 Li  0  0
   10.7559   13.6512   11.5620 Li  0  0
    9.2586   12.1995    6.6104 Li  0  0
M  END

> <TOTAL ENERGY>
BIOVIA, TYPE=DOUBLE, VERSION=1                                                  
   -29.96653161

> <BINDING ENERGY>
BIOVIA, TYPE=DOUBLE, VERSION=1                                                  
    -0.09159065

> <OPERATION STATUS>
BIOVIA, TYPE=STATUS, VERSION=1                                                  
SUCCESS

$$$$
