Materials Studio SDF calculation
TCVAMP81A 

 19  0  0  0  0  0              1 V2000
    5.3130   -0.0422    0.0536 Li  0  0
    3.7938   -1.6192   -1.6693 Li  0  0
    4.7288   -4.2483   -0.2623 Li  0  0
    6.4834   -2.3395   -1.6223 Li  0  0
    6.5569    0.4160   -2.3590 Li  0  0
    3.7007    1.2508   -1.5339 Li  0  0
    4.2728    2.0301    1.5639 Li  0  0
    7.0562    2.0353    0.1768 Li  0  0
    8.1508   -0.7108    0.0698 Li  0  0
    7.8023   -3.7312    0.3957 Li  0  0
    5.9215   -4.5338    2.5688 Li  0  0
    5.5464   -2.1909    1.3913 Li  0  0
    2.5432   -0.4011    0.7901 Li  0  0
    3.8760   -0.3000    3.2195 Li  0  0
    6.6864    0.4402    2.6948 Li  0  0
    9.5135    0.8030    2.0998 Li  0  0
    8.2596   -1.9807    2.7055 Li  0  0
    5.7315   -2.0833    4.2624 Li  0  0
    3.1303   -3.0650    2.3235 Li  0  0
M  END

> <TOTAL ENERGY>
BIOVIA, TYPE=DOUBLE, VERSION=1                                                  
  -142.73332960

> <BINDING ENERGY>
BIOVIA, TYPE=DOUBLE, VERSION=1                                                  
    -0.82736006

> <OPERATION STATUS>
BIOVIA, TYPE=STATUS, VERSION=1                                                  
SUCCESS

$$$$
