Materials Studio SDF calculation
TCVAMP81A 

  8  0  0  0  0  0              1 V2000
    4.6888    2.2162    0.7477 Li  0  0
    3.0006    0.2126    0.7477 Li  0  0
    5.2314   -0.1782    2.1484 Li  0  0
    4.7157   -0.3985   -0.3997 Li  0  0
    2.6875   -1.2069   -0.4741 Li  0  0
    4.2464   -1.7860    1.4406 Li  0  0
    3.7825   -0.5741    4.1127 Li  0  0
    7.0046   -1.6056    1.7706 Li  0  0
M  END

> <TOTAL ENERGY>
ACCELRYS, TYPE=DOUBLE, VERSION=1                                                
   -60.02756488

> <BINDING ENERGY>
ACCELRYS, TYPE=DOUBLE, VERSION=1                                                
    -0.27768297

> <OPERATION STATUS>
ACCELRYS, TYPE=STATUS, VERSION=1                                                
SUCCESS

$$$$
