Materials Studio SDF calculation
TCVAMP81A 

 10  0  0  0  0  0              1 V2000
   -3.0119    1.9202    0.0000 Li  0  0
   -0.3728    1.9202    0.0000 Li  0  0
    0.9468   -0.3654    0.0000 Li  0  0
   -0.3728   -2.6509    0.0000 Li  0  0
   -3.0119   -2.6509    0.0000 Li  0  0
   -4.3314   -0.3654    0.0000 Li  0  0
   -1.7723    0.8066    2.1560 Li  0  0
   -3.3803   -1.2599    2.2463 Li  0  0
   -0.7664   -1.4317    2.2000 Li  0  0
   -1.8992   -0.3042    1.1126 Li  0  0
M  END

> <TOTAL ENERGY>
ACCELRYS, TYPE=DOUBLE, VERSION=1                                                
   -75.05214194

> <BINDING ENERGY>
ACCELRYS, TYPE=DOUBLE, VERSION=1                                                
    -0.36478955

> <OPERATION STATUS>
ACCELRYS, TYPE=STATUS, VERSION=1                                                
SUCCESS

$$$$
