Materials Studio SDF calculation
TCVAMP81A 

  5  0  0  0  0  0              1 V2000
   -5.5575   -0.5283    0.4832 Li  0  0
   -3.6177    0.9520    0.0000 Li  0  0
   -1.8676   -0.6899    0.6564 Li  0  0
   -3.7088   -2.1022    0.0000 Li  0  0
   -3.6895   -0.2983    1.6260 Li  0  0
M  END

> <TOTAL ENERGY>
ACCELRYS, TYPE=DOUBLE, VERSION=1                                                
   -37.47263882

> <BINDING ENERGY>
ACCELRYS, TYPE=DOUBLE, VERSION=1                                                
    -0.12896262

> <OPERATION STATUS>
ACCELRYS, TYPE=STATUS, VERSION=1                                                
SUCCESS

$$$$
