Materials Studio SDF calculation
TCVAMP81A 

 19  0  0  0  0  0              1 V2000
   -2.0700    1.3259   -2.3422 Li  0  0
    3.3209    1.8345   -2.1053 Li  0  0
    2.7815   -0.1573    0.0522 Li  0  0
    0.0077   -0.2629    0.8344 Li  0  0
   -1.8128   -3.1690   -0.4473 Li  0  0
   -1.5038    2.1782    0.6276 Li  0  0
   -2.8104   -0.4595    0.3316 Li  0  0
   -1.0649    0.5538    3.1536 Li  0  0
    0.7366    1.6940   -1.1146 Li  0  0
    1.1189   -2.7038   -0.1059 Li  0  0
   -0.6503   -0.8709   -1.7094 Li  0  0
   -3.0686   -1.6705   -2.6668 Li  0  0
    1.6588   -1.0544    2.7872 Li  0  0
   -1.0241   -2.3356    2.2417 Li  0  0
    1.4505    1.9566    1.7532 Li  0  0
    0.7688    1.6677   -3.8862 Li  0  0
   -0.2028   -3.2698   -2.9784 Li  0  0
   -0.8461   -0.6772   -4.4709 Li  0  0
    1.8808   -0.8253   -2.7102 Li  0  0
M  END

> <TOTAL ENERGY>
ACCELRYS, TYPE=DOUBLE, VERSION=1                                                
  -142.82467390

> <BINDING ENERGY>
ACCELRYS, TYPE=DOUBLE, VERSION=1                                                
    -0.91870436

> <OPERATION STATUS>
ACCELRYS, TYPE=STATUS, VERSION=1                                                
SUCCESS

$$$$
