Materials Studio SDF calculation
TCVAMP81A 

  6  0  0  0  0  0              1 V2000
   -9.5401    1.2949   -1.1993 Li  0  0
  -10.5508    0.2347    1.1014 Li  0  0
   -7.9685   -0.1724    0.6406 Li  0  0
   -8.7677    2.0504    1.9548 Li  0  0
   -9.1040   -1.1796    2.9536 Li  0  0
   -9.7853   -1.9857   -0.1885 Li  0  0
M  END

> <TOTAL ENERGY>
BIOVIA, TYPE=DOUBLE, VERSION=1                                                  
   -44.99250797

> <BINDING ENERGY>
BIOVIA, TYPE=DOUBLE, VERSION=1                                                  
    -0.18009654

> <OPERATION STATUS>
BIOVIA, TYPE=STATUS, VERSION=1                                                  
SUCCESS

$$$$
