Materials Studio SDF calculation
TCVAMP81A 

 13  0  0  0  0  0              1 V2000
   -3.6246    0.8228    0.1994 Li  0  0
   -5.2837   -1.2049    0.1994 Li  0  0
   -2.7045   -1.6654    0.1994 Li  0  0
   -3.9722    1.4134    4.6780 Li  0  0
   -5.4846   -0.7122    4.4352 Li  0  0
   -3.3969   -2.2926    4.3441 Li  0  0
   -1.8684   -0.1785    4.5862 Li  0  0
   -2.7085    1.0485    2.2604 Li  0  0
   -5.1993    0.4050    1.7643 Li  0  0
   -4.7016   -2.1427    2.1190 Li  0  0
   -2.2065   -1.5184    2.6180 Li  0  0
   -3.9121   -0.5435    6.3061 Li  0  0
   -3.8373   -0.5968    3.4180 Li  0  0
M  END

> <TOTAL ENERGY>
ACCELRYS, TYPE=DOUBLE, VERSION=1                                                
   -97.60907771

> <BINDING ENERGY>
ACCELRYS, TYPE=DOUBLE, VERSION=1                                                
    -0.51551961

> <OPERATION STATUS>
ACCELRYS, TYPE=STATUS, VERSION=1                                                
SUCCESS

$$$$
