Materials Studio SDF calculation
TCVAMP81A 

 19  0  0  0  0  0              1 V2000
   -3.3360   -2.8897   -0.1418 Li  0  0
   -0.1278    0.1838   -4.8417 Li  0  0
    1.2653   -1.6888    3.8789 Li  0  0
    2.0440    1.6469    2.1173 Li  0  0
   -0.6734   -0.6437    0.9628 Li  0  0
    3.2642   -1.1818   -3.3825 Li  0  0
   -2.6773    0.4147   -2.0083 Li  0  0
   -0.0900   -2.5633   -2.1896 Li  0  0
   -4.1000    0.4713    1.5707 Li  0  0
    1.0793    1.0317   -1.5432 Li  0  0
   -0.0200   -4.2247    1.2847 Li  0  0
    2.8279   -1.8017    0.3601 Li  0  0
    1.9996    4.3811   -0.5480 Li  0  0
   -1.2562    1.2135    4.0556 Li  0  0
   -2.5108   -2.4001    3.5902 Li  0  0
   -1.3584    3.0167    0.6535 Li  0  0
    4.5790    1.4122   -0.7288 Li  0  0
   -0.9093    3.6219   -3.0900 Li  0  0
    0.1170    4.4666    2.6861 Li  0  0
M  END

> <TOTAL ENERGY>
ACCELRYS, TYPE=DOUBLE, VERSION=1                                                
  -142.76592937

> <BINDING ENERGY>
ACCELRYS, TYPE=DOUBLE, VERSION=1                                                
    -0.85995982

> <OPERATION STATUS>
ACCELRYS, TYPE=STATUS, VERSION=1                                                
SUCCESS

$$$$
