Materials Studio SDF calculation
TCVAMP81A 

 19  0  0  0  0  0              1 V2000
   -2.1650   -0.3828   -0.3701 Li  0  0
   -1.3260    2.2832   -0.3673 Li  0  0
    1.6531    2.7044   -0.4697 Li  0  0
    3.8954    0.5475   -0.4184 Li  0  0
    2.7317   -2.0063   -0.5908 Li  0  0
    0.2400   -2.3723   -0.7233 Li  0  0
   -0.5500   -0.1661    2.1163 Li  0  0
    0.4093    2.4971    2.1860 Li  0  0
    2.9947    3.0059    1.4860 Li  0  0
    2.4479    0.4073    2.0791 Li  0  0
    1.6913   -2.4709    1.8507 Li  0  0
   -1.3408   -2.9820    1.3860 Li  0  0
   -0.6215    0.0279   -2.8408 Li  0  0
    0.1281    2.5229   -3.0175 Li  0  0
    3.3274    2.8846   -2.6142 Li  0  0
    2.3386    0.2397   -2.8601 Li  0  0
    1.2525   -2.3693   -3.0982 Li  0  0
   -1.2280   -2.8868   -2.8031 Li  0  0
    0.8856    0.2139   -0.3597 Li  0  0
M  END

> <TOTAL ENERGY>
BIOVIA, TYPE=DOUBLE, VERSION=1                                                  
  -142.74326491

> <BINDING ENERGY>
BIOVIA, TYPE=DOUBLE, VERSION=1                                                  
    -0.83729537

> <OPERATION STATUS>
BIOVIA, TYPE=STATUS, VERSION=1                                                  
SUCCESS

$$$$
