Materials Studio SDF calculation
TCVAMP81A 

 19  0  0  0  0  0              1 V2000
   -5.6427    2.6096    1.8962 Li  0  0
   -5.7575    0.5398   -1.5639 Li  0  0
   -5.4243   -2.3060    1.3242 Li  0  0
   -5.4309   -0.8326   -3.7514 Li  0  0
   -5.6414    2.4079   -3.3739 Li  0  0
   -4.4296    2.9683   -0.6129 Li  0  0
   -4.3285    0.3230    0.6399 Li  0  0
   -4.2245   -1.9450   -1.1940 Li  0  0
   -8.0615    0.5522   -2.8205 Li  0  0
   -7.4710    2.5857   -0.5213 Li  0  0
   -6.9513    0.1669    0.8949 Li  0  0
   -7.2414   -1.8747   -1.0524 Li  0  0
   -2.4714   -1.3393    1.3234 Li  0  0
   -2.6309    1.9318    1.7324 Li  0  0
   -2.8806    0.6691   -1.6638 Li  0  0
   -5.2304   -0.0217    3.2116 Li  0  0
   -8.4103    1.5373    2.5693 Li  0  0
   -9.4100    0.1557   -0.0190 Li  0  0
   -8.2720   -1.6625    2.2116 Li  0  0
M  END

> <TOTAL ENERGY>
ACCELRYS, TYPE=DOUBLE, VERSION=1                                                
  -142.76005311

> <BINDING ENERGY>
ACCELRYS, TYPE=DOUBLE, VERSION=1                                                
    -0.82374789

> <OPERATION STATUS>
ACCELRYS, TYPE=STATUS, VERSION=1                                                
SUCCESS

$$$$
