Materials Studio SDF calculation
TCVAMP81A 

 19  0  0  0  0  0              1 V2000
   -2.1115    0.8127    0.2083 Li  0  0
    0.1123    2.8929    0.5458 Li  0  0
    2.6205    1.3420    1.0731 Li  0  0
    0.6578   -0.3217   -0.5087 Li  0  0
   -1.2004   -1.9397    1.6094 Li  0  0
   -1.7453    2.6675    3.0158 Li  0  0
    1.2307    2.8965    3.4572 Li  0  0
    3.0350    0.7230    3.8544 Li  0  0
    1.9924   -1.4758    2.1785 Li  0  0
    0.2142   -2.7561    4.0622 Li  0  0
   -2.4173   -1.9269    4.5586 Li  0  0
   -3.0154    0.0891    2.8253 Li  0  0
   -2.6156    0.9912    5.5699 Li  0  0
   -0.5946    3.0958    5.6577 Li  0  0
    1.7531    1.4568    6.3441 Li  0  0
    2.3419   -1.4948    5.4119 Li  0  0
   -0.4516   -1.0545    6.7683 Li  0  0
    0.0180    0.5892    1.9191 Li  0  0
   -0.0457    0.2571    4.5225 Li  0  0
M  END

> <TOTAL ENERGY>
ACCELRYS, TYPE=DOUBLE, VERSION=1                                                
  -142.83940316

> <BINDING ENERGY>
ACCELRYS, TYPE=DOUBLE, VERSION=1                                                
    -0.93343362

> <OPERATION STATUS>
ACCELRYS, TYPE=STATUS, VERSION=1                                                
SUCCESS

$$$$
