Materials Studio SDF calculation
TCVAMP81A 

 19  0  0  0  0  0              1 V2000
    8.6387    3.9697    0.1196 Li  0  0
    8.4761    3.5991   -2.8550 Li  0  0
    8.1495    0.6401   -2.4685 Li  0  0
    8.3122    1.0107    0.5061 Li  0  0
    9.9112    2.5042    0.6526 Li  0  0
    9.9678    4.5623   -0.9024 Li  0  0
    9.8010    4.2529   -3.4584 Li  0  0
    9.5776    1.8855   -4.4595 Li  0  0
    9.5209   -0.1726   -2.9046 Li  0  0
    9.6877    0.1368   -0.3485 Li  0  0
   12.3205    3.8105   -0.1610 Li  0  0
   12.1615    4.5085   -2.6398 Li  0  0
   11.8146    2.7178   -4.4645 Li  0  0
   11.6268    0.2290   -3.8106 Li  0  0
   11.7858   -0.4690   -1.3318 Li  0  0
   12.1326    1.3217    0.4930 Li  0  0
   10.3720    2.0985   -0.6753 Li  0  0
   12.9766    1.8656   -0.8369 Li  0  0
   15.5850    1.6799   -0.9993 Li  0  0
M  END

> <TOTAL ENERGY>
ACCELRYS, TYPE=DOUBLE, VERSION=1                                                
  -142.72761144

> <BINDING ENERGY>
ACCELRYS, TYPE=DOUBLE, VERSION=1                                                
    -0.82164190

> <OPERATION STATUS>
ACCELRYS, TYPE=STATUS, VERSION=1                                                
SUCCESS

$$$$
