Materials Studio SDF calculation
TCVAMP81A 

 19  0  0  0  0  0              1 V2000
    3.8908   -2.9545   -0.9347 Li  0  0
    1.7072   -2.0996   -0.4200 Li  0  0
    4.6443   -1.4604   -2.2952 Li  0  0
    5.3470   -0.1519    4.2810 Li  0  0
    3.0845   -2.5834    1.1866 Li  0  0
    1.9570   -0.3792    1.2781 Li  0  0
    4.5613    0.6347   -0.2332 Li  0  0
    5.3758   -1.8062   -0.0791 Li  0  0
    2.3056   -1.0843    3.0259 Li  0  0
    3.7162    1.3106    1.7046 Li  0  0
    6.0736   -0.0960    0.9711 Li  0  0
    4.7969   -2.3159    1.8665 Li  0  0
    4.3829   -1.9915    3.9468 Li  0  0
    3.3465    0.4839    4.0347 Li  0  0
    5.7542    1.3818    2.6784 Li  0  0
    6.5876   -1.2856    2.6739 Li  0  0
    3.3346   -1.0749   -0.2718 Li  0  0
    3.8604   -0.7522    1.2103 Li  0  0
    4.5936   -0.4053    2.6404 Li  0  0
M  END

> <TOTAL ENERGY>
BIOVIA, TYPE=DOUBLE, VERSION=1                                                  
  -142.72065098

> <BINDING ENERGY>
BIOVIA, TYPE=DOUBLE, VERSION=1                                                  
    -0.81468144

> <OPERATION STATUS>
BIOVIA, TYPE=STATUS, VERSION=1                                                  
SUCCESS

$$$$
