Materials Studio SDF calculation
TCVAMP81A 

 19  0  0  0  0  0              1 V2000
   -3.3779    1.8835   -0.2925 Li  0  0
    2.3091    1.0216   -1.2798 Li  0  0
    0.7501   -0.3196    1.0244 Li  0  0
   -0.5273   -3.1140    0.3213 Li  0  0
   -3.4890   -2.9650    0.8247 Li  0  0
   -4.5954   -0.6929   -1.1234 Li  0  0
   -1.6041    1.4206    2.0891 Li  0  0
   -4.1761   -0.1061    1.8300 Li  0  0
   -5.8677    1.1081   -0.5183 Li  0  0
   -1.9922   -0.6877    0.2673 Li  0  0
   -0.5189    1.6908   -0.7380 Li  0  0
   -2.3649   -2.6595   -1.9406 Li  0  0
    0.2405   -1.0128   -1.7579 Li  0  0
   -4.4725    1.7030   -3.0825 Li  0  0
   -4.0977   -1.2219   -4.1393 Li  0  0
   -1.1013   -1.4329   -4.4336 Li  0  0
    0.1468    1.3596   -3.5560 Li  0  0
   -2.4325    1.0477   -5.2827 Li  0  0
   -2.2957    0.1653   -2.5813 Li  0  0
M  END

> <TOTAL ENERGY>
ACCELRYS, TYPE=DOUBLE, VERSION=1                                                
  -142.72782896

> <BINDING ENERGY>
ACCELRYS, TYPE=DOUBLE, VERSION=1                                                
    -0.82185942

> <OPERATION STATUS>
ACCELRYS, TYPE=STATUS, VERSION=1                                                
SUCCESS

$$$$
