Materials Studio SDF calculation
TCVAMP81A 

 19  0  0  0  0  0              1 V2000
    3.8684   -3.7112   -0.7508 Li  0  0
    1.0351   -2.5263   -0.1706 Li  0  0
    4.9862   -1.3748   -2.4036 Li  0  0
    7.2105    0.6387    7.8498 Li  0  0
    3.0600   -2.6300    2.0420 Li  0  0
    1.9806    0.1625    1.9678 Li  0  0
    5.0267    1.1205    0.2832 Li  0  0
    5.9132   -1.7689    0.5176 Li  0  0
    3.2641   -0.6308    4.8371 Li  0  0
    4.4412    2.0473    3.5446 Li  0  0
    7.1250    0.5132    2.7045 Li  0  0
    5.8247   -2.2846    3.7525 Li  0  0
    5.5016   -1.5957    7.0605 Li  0  0
    4.5134    1.4679    6.9828 Li  0  0
    7.3628    2.3099    5.4532 Li  0  0
    8.2682   -0.8060    5.5289 Li  0  0
    3.3346   -1.0749   -0.2718 Li  0  0
    4.5686   -0.3404    2.4724 Li  0  0
    5.9511    0.1840    5.2581 Li  0  0
M  END

> <TOTAL ENERGY>
BIOVIA, TYPE=DOUBLE, VERSION=1                                                  
  -142.69873602

> <BINDING ENERGY>
BIOVIA, TYPE=DOUBLE, VERSION=1                                                  
    -0.79276648

> <OPERATION STATUS>
BIOVIA, TYPE=STATUS, VERSION=1                                                  
SUCCESS

$$$$
