Materials Studio SDF calculation
TCVAMP81A 

 11  0  0  0  0  0              1 V2000
   -4.0779    2.1003    0.0000 Li  0  0
   -3.9898   -0.4880    0.0000 Li  0  0
   -1.4015   -0.3999    0.0000 Li  0  0
   -1.4896    2.1884    0.0000 Li  0  0
   -4.6208    0.7709    2.9030 Li  0  0
   -2.7759   -1.0385    2.7302 Li  0  0
   -0.9699    0.8141    2.6143 Li  0  0
   -2.8148    2.6234    2.7871 Li  0  0
   -2.6690    0.6091    1.3292 Li  0  0
   -2.5610    0.7260    4.3938 Li  0  0
   -2.7867    0.6607   -1.9141 Li  0  0
M  END

> <TOTAL ENERGY>
ACCELRYS, TYPE=DOUBLE, VERSION=1                                                
   -82.57163266

> <BINDING ENERGY>
ACCELRYS, TYPE=DOUBLE, VERSION=1                                                
    -0.41554503

> <OPERATION STATUS>
ACCELRYS, TYPE=STATUS, VERSION=1                                                
SUCCESS

$$$$
