Materials Studio SDF calculation
TCVAMP81A 

  4  0  0  0  0  0              1 V2000
   -6.2499    2.2746    0.7014 Li  0  0
   -3.5205    1.7109    0.3465 Li  0  0
   -6.6818   -2.1491   -1.8573 Li  0  0
   -5.6142   -0.1979   -0.2881 Mn  0  0
M  END

> <TOTAL ENERGY>
BIOVIA, TYPE=DOUBLE, VERSION=1                                                  
  -144.28357381

> <BINDING ENERGY>
BIOVIA, TYPE=DOUBLE, VERSION=1                                                  
    -0.01293029

> <HIRSHFELD CHARGE>
BIOVIA, TYPE=DOUBLE, ATOMISTIC, VERSION=1                                       
  1     0.11698497
  2     0.09216722
  3     0.11282653
  4    -0.31783231

> <MULLIKEN CHARGE>
BIOVIA, TYPE=DOUBLE, ATOMISTIC, VERSION=1                                       
  1     0.09900412
  2     0.04447026
  3     0.03953737
  4    -0.18301176

> <HOMO ENERGY>
BIOVIA, TYPE=DOUBLE, VERSION=1                                                  
    -0.08053700

> <LUMO ENERGY>
BIOVIA, TYPE=DOUBLE, VERSION=1                                                  
    -0.05595305

> <LUMO-HOMO ENERGY>
BIOVIA, TYPE=DOUBLE, VERSION=1                                                  
     0.02458395

> <OPERATION STATUS>
BIOVIA, TYPE=STATUS, VERSION=1                                                  
SUCCESS

$$$$
