Materials Studio SDF calculation
TCVAMP81A 

 19  0  0  0  0  0              1 V2000
   -7.3300    2.1712   -0.0340 Li  0  0
   -7.0433   -1.2630    0.0968 Li  0  0
   -3.6256   -0.9822    0.1256 Li  0  0
   -3.9123    2.4520   -0.0053 Li  0  0
   -5.4937    0.6473    1.3247 Li  0  0
   -5.4619    0.5418   -1.2332 Li  0  0
   -9.2427    3.5873    3.2287 Li  0  0
   -7.0509    5.5718    4.0144 Li  0  0
   -5.0560    4.0469    5.5912 Li  0  0
   -5.8936    1.1840    5.7733 Li  0  0
   -8.4849    0.9222    4.2897 Li  0  0
   -7.0966    4.4070    1.2470 Li  0  0
   -4.4892    4.6987    2.6930 Li  0  0
   -3.7792    1.9818    3.8074 Li  0  0
   -5.8978   -0.0003    3.0498 Li  0  0
   -7.9596    1.5554    1.4277 Li  0  0
   -7.9018    3.3805    5.9107 Li  0  0
   -6.4806    2.7962    3.4644 Li  0  0
   -5.0185    2.2167    1.0632 Li  0  0
M  END

> <TOTAL ENERGY>
ACCELRYS, TYPE=DOUBLE, VERSION=1                                                
  -142.73679209

> <BINDING ENERGY>
ACCELRYS, TYPE=DOUBLE, VERSION=1                                                
    -0.83082254

> <OPERATION STATUS>
ACCELRYS, TYPE=STATUS, VERSION=1                                                
SUCCESS

$$$$
