Materials Studio SDF calculation
TCVAMP81A 

 19  0  0  0  0  0              1 V2000
    3.9376    0.1681   -0.5483 Li  0  0
    1.5093    2.7461   -1.1481 Li  0  0
   -0.4888   -1.3247    0.6260 Li  0  0
    2.9062    1.7741    2.0713 Li  0  0
   -3.2756    0.4043   -1.5456 Li  0  0
   -2.9649   -2.1804    0.1916 Li  0  0
   -0.2768   -3.9078    0.3499 Li  0  0
   -2.3923    0.6615    1.4432 Li  0  0
   -1.2800   -2.3419    2.9017 Li  0  0
   -0.7320    0.9142   -0.8824 Li  0  0
   -0.0292    2.6662    1.3994 Li  0  0
   -0.9487   -1.6303   -2.1775 Li  0  0
   -1.0025    1.6153   -3.3883 Li  0  0
    1.8699   -2.1976   -0.9606 Li  0  0
    1.5339    0.3788    0.3792 Li  0  0
    1.9895   -1.9107    2.0053 Li  0  0
   -1.9886    3.2140   -0.8408 Li  0  0
    1.5451    0.1591   -2.5948 Li  0  0
    0.2577    0.2853    3.0042 Li  0  0
M  END

> <TOTAL ENERGY>
ACCELRYS, TYPE=DOUBLE, VERSION=1                                                
  -142.82449548

> <BINDING ENERGY>
ACCELRYS, TYPE=DOUBLE, VERSION=1                                                
    -0.91852594

> <OPERATION STATUS>
ACCELRYS, TYPE=STATUS, VERSION=1                                                
SUCCESS

$$$$
