Materials Studio SDF calculation
TCVAMP81A 

  4  0  0  0  0  0              1 V2000
   10.9666   12.9289    9.8649 Li  0  0
    8.3866   12.7672   10.0443 Li  0  0
    9.8924   12.6950   12.6603 Li  0  0
    9.4613   12.7771    7.2548 Li  0  0
M  END

> <TOTAL ENERGY>
BIOVIA, TYPE=DOUBLE, VERSION=1                                                  
   -29.96657484

> <BINDING ENERGY>
BIOVIA, TYPE=DOUBLE, VERSION=1                                                  
    -0.09163388

> <OPERATION STATUS>
BIOVIA, TYPE=STATUS, VERSION=1                                                  
SUCCESS

$$$$
