Materials Studio SDF calculation
TCVAMP81A 

 19  0  0  0  0  0              1 V2000
   -3.9914    2.6335   -8.1988 Li  0  0
   -4.1894   -0.8728   -8.3029 Li  0  0
   -0.7736   -0.9752   -8.3482 Li  0  0
   -0.5938    2.5276   -8.0975 Li  0  0
   -2.3253    2.7217   -5.6287 Li  0  0
   -4.5588    0.7828   -5.8703 Li  0  0
   -2.5291   -1.3203   -5.8379 Li  0  0
   -0.2778    0.6108   -5.8104 Li  0  0
   -2.3864    0.7789   -7.3591 Li  0  0
   -3.2409    2.6535   -3.1704 Li  0  0
   -0.4348    2.7850   -4.1878 Li  0  0
    1.1448    0.4797   -3.1375 Li  0  0
   -0.1484   -1.9511   -4.3415 Li  0  0
   -2.9502   -2.2319   -3.3302 Li  0  0
   -4.3869    0.1614   -4.3815 Li  0  0
   -0.9248    1.8333   -1.4657 Li  0  0
   -3.4839    0.1342   -1.5878 Li  0  0
   -0.7425   -1.2477   -1.5696 Li  0  0
   -1.6699    0.3028   -3.6446 Li  0  0
M  END

> <TOTAL ENERGY>
ACCELRYS, TYPE=DOUBLE, VERSION=1                                                
  -142.73572492

> <BINDING ENERGY>
ACCELRYS, TYPE=DOUBLE, VERSION=1                                                
    -0.82975538

> <OPERATION STATUS>
ACCELRYS, TYPE=STATUS, VERSION=1                                                
SUCCESS

$$$$
