Materials Studio SDF calculation
TCVAMP81A 

  6  0  0  0  0  0              1 V2000
   -6.8903    1.7902   -0.0158 Li  0  0
   -6.6749   -0.8176    0.0852 Li  0  0
   -4.0652   -0.6012    0.1074 Li  0  0
   -4.2807    2.0067    0.0063 Li  0  0
   -5.4929    0.6438    1.3506 Li  0  0
   -5.4626    0.5452   -1.2591 Li  0  0
M  END

> <TOTAL ENERGY>
ACCELRYS, TYPE=DOUBLE, VERSION=1                                                
   -44.99279043

> <BINDING ENERGY>
ACCELRYS, TYPE=DOUBLE, VERSION=1                                                
    -0.18037900

> <OPERATION STATUS>
ACCELRYS, TYPE=STATUS, VERSION=1                                                
SUCCESS

$$$$
