Materials Studio SDF calculation
TCVAMP81A 

 14  0  0  0  0  0              1 V2000
   -5.4014    1.9755   -1.8187 Li  0  0
   -5.4405   -0.6270   -1.6451 Li  0  0
   -2.8315   -0.6725   -1.6422 Li  0  0
   -2.7950    1.9124   -1.8694 Li  0  0
   -5.8447    0.6910    0.7196 Li  0  0
   -4.0468   -1.2005    0.7140 Li  0  0
   -2.1819    0.6100    0.7937 Li  0  0
   -3.9480    2.4870    0.7838 Li  0  0
   -4.8318    2.0293    3.4049 Li  0  0
   -4.8850   -0.5693    3.4388 Li  0  0
   -2.3221   -0.6474    2.9519 Li  0  0
   -2.2527    1.9550    2.9367 Li  0  0
   -3.7718    0.6455   -0.5597 Li  0  0
   -3.8152    0.5688    2.1059 Li  0  0
M  END

> <TOTAL ENERGY>
ACCELRYS, TYPE=DOUBLE, VERSION=1                                                
  -105.13185033

> <BINDING ENERGY>
ACCELRYS, TYPE=DOUBLE, VERSION=1                                                
    -0.56955699

> <OPERATION STATUS>
ACCELRYS, TYPE=STATUS, VERSION=1                                                
SUCCESS

$$$$
