Materials Studio SDF calculation
TCVAMP81A 

  2  0  0  0  0  0              1 V2000
   -6.8190    5.3958    3.7312 Mn  0  0
   -7.5416    3.2528    5.9389 Mn  0  0
M  END

> <TOTAL ENERGY>
BIOVIA, TYPE=DOUBLE, VERSION=1                                                  
  -243.73807097

> <BINDING ENERGY>
BIOVIA, TYPE=DOUBLE, VERSION=1                                                  
    -0.00919537

> <HIRSHFELD CHARGE>
BIOVIA, TYPE=DOUBLE, ATOMISTIC, VERSION=1                                       
  1    -0.00006231
  2    -0.00006144

> <MULLIKEN CHARGE>
BIOVIA, TYPE=DOUBLE, ATOMISTIC, VERSION=1                                       
  1    -0.00000041
  2     0.00000041

> <HOMO ENERGY>
BIOVIA, TYPE=DOUBLE, VERSION=1                                                  
    -0.12661097

> <LUMO ENERGY>
BIOVIA, TYPE=DOUBLE, VERSION=1                                                  
    -0.10717625

> <LUMO-HOMO ENERGY>
BIOVIA, TYPE=DOUBLE, VERSION=1                                                  
     0.01943472

> <OPERATION STATUS>
BIOVIA, TYPE=STATUS, VERSION=1                                                  
SUCCESS

$$$$
