Materials Studio SDF calculation
TCVAMP81A 

 19  0  0  0  0  0              1 V2000
   -7.8357   -0.9250   -1.7825 Li  0  0
   -8.1804   -2.9393   -3.9409 Li  0  0
   -7.6737   -1.6368   -6.5561 Li  0  0
   -7.0825    1.2532   -6.1361 Li  0  0
   -7.2133    1.6677   -3.1010 Li  0  0
   -8.9074   -0.2205   -4.3903 Li  0  0
   -6.2716   -0.7729   -4.1582 Li  0  0
   -9.1291   -1.3590    0.0555 Li  0  0
   -5.9978   -1.2953    0.2146 Li  0  0
   -7.5140    0.5520   -1.5344 Li  0  0
   -7.6739    0.9249    1.2380 Li  0  0
  -10.0322    1.4636   -0.3824 Li  0  0
   -5.1708    1.5591   -0.1193 Li  0  0
   -7.6323    3.1067   -0.4664 Li  0  0
   -9.4272    4.2627    0.9157 Li  0  0
   -6.0843    4.2854    1.1568 Li  0  0
   -5.8573    3.8989   -2.0959 Li  0  0
   -9.2522    3.8671   -2.2626 Li  0  0
   -7.6261    5.8886   -0.8080 Li  0  0
M  END

> <TOTAL ENERGY>
ACCELRYS, TYPE=DOUBLE, VERSION=1                                                
  -142.74322097

> <BINDING ENERGY>
ACCELRYS, TYPE=DOUBLE, VERSION=1                                                
    -0.83725142

> <OPERATION STATUS>
ACCELRYS, TYPE=STATUS, VERSION=1                                                
SUCCESS

$$$$
