Materials Studio SDF calculation
TCVAMP81A 

 19  0  0  0  0  0              1 V2000
   -4.3741    2.0365   -0.1710 Li  0  0
   -4.5721   -1.4698   -0.2752 Li  0  0
   -1.1562   -1.5721   -0.3204 Li  0  0
   -0.9764    1.9307   -0.0698 Li  0  0
   -2.7080    2.1248    2.3991 Li  0  0
   -4.9414    0.1858    2.1575 Li  0  0
   -2.9118   -1.9173    2.1898 Li  0  0
   -0.6605    0.0138    2.2173 Li  0  0
   -2.7691    0.1819    0.6686 Li  0  0
   -3.2409    2.6535   -3.1704 Li  0  0
   -0.4348    2.7850   -4.1878 Li  0  0
    1.1448    0.4797   -3.1375 Li  0  0
   -0.1484   -1.9511   -4.3415 Li  0  0
   -2.9502   -2.2319   -3.3302 Li  0  0
   -4.3869    0.1614   -4.3815 Li  0  0
   -0.9248    1.8333   -1.4657 Li  0  0
   -3.4839    0.1342   -1.5878 Li  0  0
   -0.7425   -1.2477   -1.5696 Li  0  0
   -1.6699    0.3028   -3.6446 Li  0  0
M  END

> <TOTAL ENERGY>
ACCELRYS, TYPE=DOUBLE, VERSION=1                                                
  -142.74206586

> <BINDING ENERGY>
ACCELRYS, TYPE=DOUBLE, VERSION=1                                                
    -0.83609631

> <OPERATION STATUS>
ACCELRYS, TYPE=STATUS, VERSION=1                                                
SUCCESS

$$$$
