Materials Studio SDF calculation
TCVAMP81A 

 19  0  0  0  0  0              1 V2000
   -1.6272   -1.3539   -0.3240 Li  0  0
   -1.8064    0.1611    4.8216 Li  0  0
   -1.5721    3.0478    1.8578 Li  0  0
   -0.3144   -1.1843    2.5803 Li  0  0
    2.1026    2.7915    1.4460 Li  0  0
   -2.0525    5.2495    0.4893 Li  0  0
    0.1298    1.5421    3.1904 Li  0  0
    1.0437    0.4569    5.4370 Li  0  0
   -0.7576    3.2418    5.1724 Li  0  0
    0.3701    4.8789    2.4733 Li  0  0
    2.4541    0.1876    2.7019 Li  0  0
    0.2611    0.6796    0.4231 Li  0  0
   -2.7142    5.1201    3.4537 Li  0  0
    0.1322    3.5108   -0.4532 Li  0  0
   -3.3393    2.3967    4.0820 Li  0  0
   -4.2391    3.2078    1.4192 Li  0  0
    2.1779    3.0624    4.3248 Li  0  0
   -2.6700    0.3436    1.7849 Li  0  0
   -2.2260    1.6825   -0.6081 Li  0  0
M  END

> <TOTAL ENERGY>
BIOVIA, TYPE=DOUBLE, VERSION=1                                                  
  -142.73547660

> <BINDING ENERGY>
BIOVIA, TYPE=DOUBLE, VERSION=1                                                  
    -0.82950706

> <OPERATION STATUS>
BIOVIA, TYPE=STATUS, VERSION=1                                                  
SUCCESS

$$$$
