Materials Studio SDF calculation
TCVAMP81A 

 19  0  0  0  0  0              1 V2000
   -4.3741    2.0365   -0.1710 Li  0  0
   -4.5721   -1.4698   -0.2752 Li  0  0
   -1.1562   -1.5721   -0.3204 Li  0  0
   -0.9764    1.9307   -0.0698 Li  0  0
   -2.7080    2.1248    2.3991 Li  0  0
   -4.9414    0.1858    2.1575 Li  0  0
   -2.9118   -1.9173    2.1898 Li  0  0
   -0.6605    0.0138    2.2173 Li  0  0
   -2.7691    0.1819    0.6686 Li  0  0
   -4.8885    3.8901   -2.7298 Li  0  0
   -6.4194    1.9854   -2.7298 Li  0  0
   -5.0810   -0.0591   -2.7298 Li  0  0
   -2.7229    0.5820   -2.7298 Li  0  0
   -2.6040    3.0228   -2.7298 Li  0  0
   -4.5818    2.1881   -2.7225 Li  0  0
   -4.2485    1.0565   -4.8625 Li  0  0
   -3.1773   -1.0949   -4.4203 Li  0  0
   -2.8485   -1.2929   -2.0070 Li  0  0
   -3.7165    0.7362   -0.9577 Li  0  0
M  END

> <TOTAL ENERGY>
ACCELRYS, TYPE=DOUBLE, VERSION=1                                                
  -142.71687998

> <BINDING ENERGY>
ACCELRYS, TYPE=DOUBLE, VERSION=1                                                
    -0.81091044

> <OPERATION STATUS>
ACCELRYS, TYPE=STATUS, VERSION=1                                                
SUCCESS

$$$$
