Materials Studio SDF calculation
TCVAMP81A 

  4  0  0  0  0  0              1 V2000
   -9.7196    2.1252   -1.5570 Li  0  0
   -6.4642    1.6146   -1.0959 Li  0  0
   -7.9061    3.7586   -0.3137 Li  0  0
   -8.4812    0.6468    0.5580 Li  0  0
M  END

> <TOTAL ENERGY>
BIOVIA, TYPE=DOUBLE, VERSION=1                                                  
   -29.97823549

> <BINDING ENERGY>
BIOVIA, TYPE=DOUBLE, VERSION=1                                                  
    -0.08867523

> <OPERATION STATUS>
BIOVIA, TYPE=STATUS, VERSION=1                                                  
SUCCESS

$$$$
