Materials Studio SDF calculation
TCVAMP81A 

  4  0  0  0  0  0              1 V2000
   -9.6555    1.8848   -1.8767 Li  0  0
   -6.7714    1.5429   -1.1225 Li  0  0
   -8.0790    3.5434    0.0817 Li  0  0
   -5.0371    3.2372    0.6649 Li  0  0
M  END

> <TOTAL ENERGY>
BIOVIA, TYPE=DOUBLE, VERSION=1                                                  
   -29.98742918

> <BINDING ENERGY>
BIOVIA, TYPE=DOUBLE, VERSION=1                                                  
    -0.09786892

> <OPERATION STATUS>
BIOVIA, TYPE=STATUS, VERSION=1                                                  
SUCCESS

$$$$
