Materials Studio SDF calculation
TCVAMP81A 

 19  0  0  0  0  0              1 V2000
    9.1819    9.2883   11.2984 Li  0  0
    8.4568   10.3032    8.9711 Li  0  0
   11.0519   10.5626    8.0607 Li  0  0
    8.5775   12.8871    8.4406 Li  0  0
    5.9766   11.0452    8.5371 Li  0  0
    7.4440    7.9234    7.9355 Li  0  0
   10.1100    8.0633    9.1495 Li  0  0
    7.5680   11.4759   11.5323 Li  0  0
    6.3947    8.9421   10.5539 Li  0  0
    8.0806    6.6443   10.5837 Li  0  0
   12.0347    9.5733   10.6593 Li  0  0
   10.3713   11.8615   10.6787 Li  0  0
   10.0845    8.1667    6.5336 Li  0  0
    9.8247    5.6973    8.0922 Li  0  0
   12.4523    7.7266    8.1319 Li  0  0
    7.8088    8.3498   13.2847 Li  0  0
   10.5698   10.2064   13.2606 Li  0  0
   10.7675    7.1645   11.8414 Li  0  0
    8.1473   10.7512    6.4312 Li  0  0
M  END

> <TOTAL ENERGY>
BIOVIA, TYPE=DOUBLE, VERSION=1                                                  
  -142.74799088

> <BINDING ENERGY>
BIOVIA, TYPE=DOUBLE, VERSION=1                                                  
    -0.84202134

> <OPERATION STATUS>
BIOVIA, TYPE=STATUS, VERSION=1                                                  
SUCCESS

$$$$
