Materials Studio SDF calculation
TCVAMP81A 

  1  0  0  0  0  0              1 V2000
   -7.4418    0.6065    0.0000 Cu  0  0
M  END

> <TOTAL ENERGY>
BIOVIA, TYPE=DOUBLE, VERSION=1                                                  
  -222.64243809

> <BINDING ENERGY>
BIOVIA, TYPE=DOUBLE, VERSION=1                                                  
     0.00459022

> <HOMO ENERGY>
BIOVIA, TYPE=DOUBLE, VERSION=1                                                  
    -0.16904471

> <LUMO ENERGY>
BIOVIA, TYPE=DOUBLE, VERSION=1                                                  
    -0.13540511

> <LUMO-HOMO ENERGY>
BIOVIA, TYPE=DOUBLE, VERSION=1                                                  
     0.03363960

> <OPERATION STATUS>
BIOVIA, TYPE=STATUS, VERSION=1                                                  
SUCCESS

$$$$
