Materials Studio SDF calculation
TCVAMP81A 

 19  0  0  0  0  0              1 V2000
   -0.2893   -4.4402    0.0065 Li  0  0
    4.3471    1.7670    0.0704 Li  0  0
    0.4207    4.5791    0.1711 Li  0  0
    2.4968   -3.0567    0.0451 Li  0  0
   -2.0421   -0.3394    2.5124 Li  0  0
   -2.1396   -0.2076   -2.2292 Li  0  0
   -3.1222    0.9234    0.1571 Li  0  0
    0.4693    0.5953   -3.0841 Li  0  0
    0.6239    0.4617    3.3233 Li  0  0
    1.7850    2.4103   -1.2313 Li  0  0
    1.8914    2.5019    1.6052 Li  0  0
   -2.2530   -2.0406    0.1058 Li  0  0
   -1.0794    2.5240    1.7568 Li  0  0
   -1.1742    2.6031   -1.4342 Li  0  0
    2.6908   -0.3300    1.3764 Li  0  0
    2.8079   -0.3565   -1.4122 Li  0  0
    0.2571   -2.0422   -1.5407 Li  0  0
    0.2736   -2.1407    1.7051 Li  0  0
   -0.0867    0.3290    0.1164 Li  0  0
M  END

> <TOTAL ENERGY>
ACCELRYS, TYPE=DOUBLE, VERSION=1                                                
  -142.73603121

> <BINDING ENERGY>
ACCELRYS, TYPE=DOUBLE, VERSION=1                                                
    -0.83006167

> <OPERATION STATUS>
ACCELRYS, TYPE=STATUS, VERSION=1                                                
SUCCESS

$$$$
