Materials Studio SDF calculation
TCVAMP81A 

 19  0  0  0  0  0              1 V2000
   -2.1114    0.8805    0.3302 Li  0  0
    0.1121    2.9048    0.6854 Li  0  0
    2.7248    1.4249    1.0542 Li  0  0
    0.6316    0.3223   -0.9181 Li  0  0
   -0.9006   -1.8909    0.5631 Li  0  0
   -1.7435    2.2849    3.0482 Li  0  0
    1.2752    2.6331    3.5056 Li  0  0
    2.5317   -0.1772    3.7194 Li  0  0
    2.1156   -1.5822    1.0060 Li  0  0
    0.2846   -2.2488    3.3790 Li  0  0
   -1.6967   -1.8920    5.7309 Li  0  0
   -2.3748   -0.6915    2.9551 Li  0  0
   -2.9442    0.8815    5.5268 Li  0  0
   -0.6446    2.9540    5.8729 Li  0  0
    1.9241    1.4709    6.2761 Li  0  0
    1.2872   -1.5237    6.1914 Li  0  0
   -0.6852    0.3673    7.5305 Li  0  0
    0.2306    0.3538    1.8687 Li  0  0
   -0.2380    0.3724    4.7480 Li  0  0
M  END

> <TOTAL ENERGY>
ACCELRYS, TYPE=DOUBLE, VERSION=1                                                
  -142.73658873

> <BINDING ENERGY>
ACCELRYS, TYPE=DOUBLE, VERSION=1                                                
    -0.83061919

> <OPERATION STATUS>
ACCELRYS, TYPE=STATUS, VERSION=1                                                
SUCCESS

$$$$
